data_crystal

_audit_creation_method 'AiiDA-DDEC plugin'

_cell_length_a        13.73422
_cell_length_b        13.73909
_cell_length_c         7.80091

_cell_angle_alpha     89.41592
_cell_angle_beta     90.10494
_cell_angle_gamma     89.82363

_symmetry_space_group_name_Hall 'P 1'
_symmetry_space_group_name_H-M  'P 1'

loop_
_symmetry_equiv_pos_as_xyz
 'x,y,z'

loop_
_atom_site_label
_atom_site_type_symbol
_atom_site_fract_x
_atom_site_fract_y
_atom_site_fract_z
_atom_site_charge
Ca         Ca      0.30640   0.25307   0.12985   1.41338
Ca         Ca      0.24787   0.69164   0.88187   1.41228
Ca         Ca      0.18751   0.24996   0.62927   1.40948
Ca         Ca      0.24399   0.81130   0.38433   1.40958
Ca         Ca      0.68691   0.75165   0.12847   1.40870
Ca         Ca      0.80463   0.74530   0.62886   1.41385
Ca         Ca      0.74667   0.30864   0.87709   1.41047
Ca         Ca      0.74701   0.18978   0.37703   1.41028
H          H       0.47513   0.78235   0.22488   0.38424
H          H       0.47455   0.75427   0.02813   0.38201
H          H       0.74026   0.97759   0.48238   0.38182
H          H       0.71677   0.97978   0.28402   0.38274
H          H       0.51950   0.25912   0.23143   0.38041
H          H       0.51844   0.27292   0.03001   0.38071
H          H       0.01484   0.71023   0.72847   0.38234
H          H       0.01643   0.72869   0.52902   0.37947
H          H       0.21631   0.02201   0.47871   0.38197
H          H       0.23849   0.02397   0.27985   0.38136
H          H       0.73219   0.52092   0.77648   0.38123
H          H       0.70964   0.51899   0.97570   0.38354
H          H       0.97437   0.25369   0.72528   0.38332
H          H       0.97649   0.22271   0.52985   0.38377
H          H       0.21891   0.48037   0.78289   0.38387
H          H       0.24222   0.47900   0.98222   0.38144
C          C       0.25812   0.02373   0.97402   0.17997
C          C       0.25688   0.91640   0.97634   0.17186
C          C       0.23898   0.02240   0.78649   0.17927
C          C       0.24109   0.91545   0.79149   0.16896
C          C       0.01888   0.73687   0.03509   0.17950
C          C       0.91171   0.74082   0.03648   0.17002
C          C       0.01931   0.75214   0.22347   0.17913
C          C       0.91210   0.75309   0.22174   0.16915
C          C       0.74351   0.97820   0.97457   0.17899
C          C       0.74727   0.08509   0.97029   0.16868
C          C       0.76271   0.97658   0.78752   0.18146
C          C       0.76230   0.08402   0.78506   0.17022
C          C       0.97583   0.26522   0.03387   0.18122
C          C       0.08306   0.26570   0.03606   0.17038
C          C       0.97599   0.23921   0.21931   0.18158
C          C       0.08305   0.24478   0.21993   0.16914
C          C       0.25564   0.47992   0.28921   0.18266
C          C       0.25974   0.58704   0.28914   0.16995
C          C       0.23576   0.48026   0.47590   0.17895
C          C       0.24263   0.58725   0.47382   0.17016
C          C       0.47530   0.74494   0.72003   0.18090
C          C       0.58244   0.74384   0.71970   0.16898
C          C       0.47570   0.76871   0.53409   0.18198
C          C       0.58292   0.76414   0.53557   0.16901
C          C       0.72764   0.51993   0.28262   0.17916
C          C       0.73782   0.41311   0.28462   0.17016
C          C       0.74691   0.52049   0.46969   0.18191
C          C       0.75391   0.41354   0.46958   0.16891
C          C       0.51978   0.25386   0.72389   0.18012
C          C       0.41260   0.25129   0.72238   0.16982
C          C       0.51985   0.24178   0.53513   0.17966
C          C       0.41262   0.24125   0.53655   0.17074
O          O       0.26869   0.08729   0.08871  -0.49621
O          O       0.26349   0.84663   0.08263  -0.51914
O          O       0.22288   0.08416   0.66846  -0.48940
O          O       0.23141   0.84488   0.69003  -0.52477
O          O       0.26435   0.41654   0.17409  -0.49328
O          O       0.15303   0.27704   0.93262  -0.51952
O          O       0.34199   0.25629   0.82563  -0.52269
O          O       0.34203   0.23583   0.43295  -0.52084
O          O       0.15298   0.23568   0.32467  -0.52267
O          O       0.08148   0.72330   0.91920  -0.49029
O          O       0.84097   0.73552   0.93315  -0.52459
O          O       0.08256   0.75922   0.34066  -0.49418
O          O       0.84175   0.75928   0.32543  -0.52377
O          O       0.41197   0.73109   0.83502  -0.49759
O          O       0.27132   0.65685   0.18447  -0.51877
O          O       0.23622   0.65777   0.57630  -0.52288
O          O       0.72676   0.91638   0.09176  -0.49080
O          O       0.73975   0.15547   0.07286  -0.52446
O          O       0.77345   0.91245   0.67395  -0.49923
O          O       0.76894   0.15364   0.67863  -0.52054
O          O       0.70855   0.58279   0.16752  -0.49275
O          O       0.65213   0.73172   0.82425  -0.52026
O          O       0.65329   0.77314   0.43239  -0.52098
O          O       0.91313   0.28092   0.91778  -0.49712
O          O       0.91373   0.21821   0.33303  -0.49476
O          O       0.58306   0.26425   0.84014  -0.49010
O          O       0.73521   0.34253   0.18200  -0.52161
O          O       0.76769   0.34372   0.57389  -0.52035
O          O       0.21773   0.41719   0.59092  -0.49472
O          O       0.41283   0.78702   0.41938  -0.49204
O          O       0.75439   0.58398   0.58480  -0.49307
O          O       0.58326   0.23583   0.41828  -0.49096
O          O       0.22729   0.52289   0.88388  -0.84950
O          O       0.51791   0.77263   0.12408  -0.84566
O          O       0.47585   0.27274   0.13254  -0.84794
O          O       0.71787   0.47671   0.87440  -0.84706
O          O       0.97283   0.71005   0.62490  -0.83906
O          O       0.71863   0.02106   0.38766  -0.84130
O          O       0.01813   0.23184   0.63242  -0.84482
O          O       0.21803   0.98055   0.37520  -0.84523
