data_crystal

_cell_length_a 36.21384
_cell_length_b 30.91226
_cell_length_c 16.29877
_cell_angle_alpha 88.86219
_cell_angle_beta  90.00003
_cell_angle_gamma 130.27678

_symmetry_space_group_name_	'P 1'
_symmetry_space_group_name_H-M	'P 1'

loop_
_symmetry_equiv_pos_as_xyz
  x,y,z

loop_
_atom_site_label
_atom_site_type_symbol
_atom_site_fract_x
_atom_site_fract_y
_atom_site_fract_z
_atom_site_charge
H 	H 	0.01017 0.22906 0.07167 0.04800
H 	H 	0.01017 0.72906 0.07167 0.04800
C 	C 	0.00020 0.60886 0.00758 -0.03200
C 	C 	0.00020 0.10886 0.00758 -0.03200
C 	C 	0.00470 0.21662 0.20287 -0.03800
C 	C 	0.00470 0.71662 0.20287 -0.03800
H 	H 	0.00428 0.10801 0.54566 0.03200
H 	H 	0.00428 0.60801 0.54566 0.03200
H 	H 	0.99667 0.06139 0.67756 0.02800
H 	H 	0.99668 0.56140 0.67756 0.02800
H 	H 	0.00980 0.40669 0.13302 0.04000
H 	H 	0.00980 0.90669 0.13302 0.04100
H 	H 	0.01366 0.66810 0.91446 0.04500
H 	H 	0.01366 0.16810 0.91445 0.04500
H 	H 	0.01869 0.36471 0.75595 0.04300
H 	H 	0.01869 0.86471 0.75595 0.04300
C 	C 	0.01072 0.21461 0.35602 0.02000
C 	C 	0.01072 0.71461 0.35602 0.02000
C 	C 	0.02298 0.22096 0.12485 -0.02000
C 	C 	0.02298 0.72096 0.12485 -0.02000
C 	C 	0.01882 0.33800 0.04986 0.02300
C 	C 	0.01881 0.83800 0.04986 0.02300
C 	C 	0.02241 0.20812 0.27233 0.01000
C 	C 	0.02241 0.70812 0.27233 0.01000
C 	C 	0.02810 0.31343 0.91443 -0.09700
C 	C 	0.02897 0.39636 0.16717 -0.04900
C 	C 	0.02810 0.81343 0.91443 -0.09700
C 	C 	0.02897 0.89636 0.16717 -0.04900
C 	C 	0.03618 0.23237 0.49673 -0.09600
C 	C 	0.03618 0.73237 0.49673 -0.09600
H 	H 	0.03248 0.43674 0.27658 0.02200
H 	H 	0.03248 0.93674 0.27658 0.02300
C 	C 	0.03949 0.36434 0.13115 0.01400
C 	C 	0.03949 0.86433 0.13116 0.01400
H 	H 	0.03492 0.61956 0.99866 0.03700
H 	H 	0.03492 0.11956 0.99866 0.03700
C 	C 	0.04181 0.41347 0.24833 -0.02800
C 	C 	0.04181 0.91347 0.24833 -0.02800
C 	C 	0.04747 0.24595 0.41302 -0.01500
C 	C 	0.04747 0.74596 0.41302 -0.01500
C 	C 	0.04693 0.33736 0.99138 -0.01900
C 	C 	0.04693 0.83736 0.99138 -0.01900
C 	C 	0.05308 0.29920 0.86477 0.29800
C 	C 	0.05308 0.79920 0.86477 0.29800
O 	O 	0.06065 0.27237 0.63125 -0.40100
O 	O 	0.06065 0.77238 0.63125 -0.40100
O 	O 	0.06136 0.31229 0.78574 -0.42500
O 	O 	0.06136 0.81229 0.78574 -0.42500
C 	C 	0.05975 0.21818 0.11603 -0.04200
C 	C 	0.05975 0.71818 0.11603 -0.04200
H 	H 	0.05551 0.04863 0.79439 0.02800
H 	H 	0.05551 0.54863 0.79439 0.02900
C 	C 	0.05574 0.19938 0.26184 -0.04800
C 	C 	0.05574 0.69938 0.26184 -0.04800
C 	C 	0.06658 0.40047 0.29307 -0.03800
C 	C 	0.06658 0.90047 0.29307 -0.03800
C 	C 	0.07298 0.26951 0.55722 0.30400
C 	C 	0.07298 0.76951 0.55722 0.30400
C 	C 	0.06741 0.35494 0.17483 -0.04700
C 	C 	0.06741 0.85494 0.17483 -0.04700
H 	H 	0.06820 0.19020 0.31441 0.03600
H 	H 	0.06820 0.69020 0.31441 0.03600
C 	C 	0.07465 0.20502 0.18391 -0.02200
C 	C 	0.07465 0.70503 0.18391 -0.02200
H 	H 	0.07599 0.22508 0.05635 0.04000
H 	H 	0.07599 0.72508 0.05635 0.04000
H 	H 	0.98292 0.33995 0.61769 0.02600
H 	H 	0.98292 0.83995 0.61769 0.02700
H 	H 	0.07584 0.41300 0.35626 0.03500
H 	H 	0.07584 0.91300 0.35626 0.03600
O 	O 	0.07416 0.28273 0.90277 -0.46400
O 	O 	0.07415 0.78273 0.90277 -0.46400
C 	C 	0.98635 0.32164 0.74433 -0.03400
C 	C 	0.98635 0.82164 0.74433 -0.03400
C 	C 	0.08029 0.37236 0.25581 -0.02000
C 	C 	0.08029 0.87236 0.25581 -0.02000
H 	H 	0.10118 0.19974 0.17631 0.03200
H 	H 	0.10118 0.69975 0.17631 0.03200
Zn	Zn	0.20531 0.33871 0.78388 1.22100
Zn	Zn	0.16056 0.29729 0.60198 1.19900
Zn	Zn	0.11423 0.32338 0.72109 1.21900
Zn	Zn	0.14494 0.33651 0.92012 1.19900
H 	H 	0.11531 0.24081 0.73536 0.18500
C 	C 	0.19172 0.41718 0.61327 0.29400
O 	O 	0.20563 0.37052 0.97549 -0.45800
O 	O 	0.25926 0.39946 0.86889 -0.37800
O 	O 	0.13902 0.28128 0.71784 -0.78100
O 	O 	0.21463 0.29903 0.61040 -0.48700
O 	O 	0.19572 0.27824 0.85105 -0.43400
O 	O 	0.26003 0.37062 0.70108 -0.41900
O 	O 	0.13301 0.25753 0.92574 -0.40900
O 	O 	0.11851 0.30114 0.53627 -0.48100
H 	H 	0.19234 0.40643 0.79713 0.18000
O 	O 	0.16974 0.36495 0.80590 -0.79500
O 	O 	0.14893 0.39226 0.64724 -0.43100
O 	O 	0.20855 0.39005 0.61029 -0.41700
C 	C 	0.24707 0.41024 0.93755 0.28700
C 	C 	0.25679 0.34240 0.63725 0.32300
C 	C 	0.16727 0.25463 0.91601 0.31500
Zn	Zn	0.38214 0.19307 0.22143 1.22400
Zn	Zn	0.39139 0.24723 0.39541 1.19700
C 	C 	0.25864 0.20594 0.13133 0.28700
Zn	Zn	0.30403 0.20009 0.28229 1.21900
Zn	Zn	0.32490 0.18610 0.08249 1.19200
H 	H 	0.39224 0.28672 0.25662 0.18300
C 	C 	0.29239 0.12313 0.41211 0.30000
O 	O 	0.36551 0.17099 0.03215 -0.46200
O 	O 	0.38071 0.13838 0.14194 -0.38800
O 	O 	0.37509 0.24823 0.28054 -0.79200
O 	O 	0.44296 0.24173 0.38229 -0.46600
O 	O 	0.43818 0.25736 0.15928 -0.44100
O 	O 	0.39847 0.16260 0.30515 -0.44300
O 	O 	0.39281 0.27269 0.09236 -0.41400
O 	O 	0.34815 0.24826 0.46643 -0.46300
H 	H 	0.29376 0.11646 0.20426 0.17500
O 	O 	0.30604 0.25400 0.36822 -0.39500
O 	O 	0.31534 0.15825 0.19819 -0.78900
O 	O 	0.29727 0.22459 0.08777 -0.45000
O 	O 	0.27053 0.13686 0.36757 -0.42600
O 	O 	0.25881 0.20270 0.21291 -0.41400
O 	O 	0.33977 0.15521 0.40907 -0.41400
C 	C 	0.36815 0.13383 0.06498 0.30600
C 	C 	0.43428 0.19627 0.35466 0.32700
C 	C 	0.43390 0.28301 0.10043 0.31300
C 	C 	0.32523 0.26594 0.44204 0.29600
C 	C 	0.98257 0.29618 0.89224 0.02900
C 	C 	0.95395 0.29530 0.95171 -0.02000
H 	H 	0.91774 0.27853 0.93651 0.03400
C 	C 	0.97000 0.31059 0.03267 -0.07800
H 	H 	0.08237 0.35216 0.00734 -0.00100
C 	C 	0.96469 0.27996 0.80744 0.01500
C 	C 	0.92187 0.22476 0.79210 -0.04800
C 	C 	0.90080 0.21174 0.71473 -0.02700
C 	C 	0.92299 0.25310 0.65178 -0.03100
C 	C 	0.96588 0.30789 0.66641 -0.02600
H 	H 	0.86765 0.16944 0.70319 0.03400
H 	H 	0.90692 0.24267 0.59168 0.01700
H 	H 	0.90446 0.19240 0.84052 0.04200
H 	H 	0.07911 0.33425 0.14639 0.03500
H 	H 	0.10080 0.36391 0.28976 0.03300
C 	C 	0.96262 0.18141 0.38452 -0.08400
H 	H 	0.08461 0.27888 0.39224 0.04000
C 	C 	0.98949 0.18266 0.52058 0.02800
C 	C 	0.95202 0.15832 0.46441 -0.02200
H 	H 	0.91470 0.12684 0.48533 0.04100
C 	C 	0.98164 0.15166 0.59734 0.00800
C 	C 	0.99233 0.11537 0.60053 -0.05500
C 	C 	0.98826 0.08922 0.67498 -0.02700
C 	C 	0.97374 0.09942 0.74623 -0.04300
C 	C 	0.96298 0.13547 0.74288 -0.02300
C 	C 	0.96589 0.16052 0.66835 -0.04200
H 	H 	0.97913 0.22318 0.20948 0.04900
H 	H 	0.95824 0.18896 0.66639 0.05500
H 	H 	0.95187 0.14356 0.79770 0.03400
H 	H 	0.97054 0.07913 0.80383 0.03700
C 	C 	0.26397 0.57147 0.46739 -0.07400
C 	C 	0.21638 0.52215 0.44870 0.01800
C 	C 	0.19292 0.47270 0.49829 -0.02200
H 	H 	0.15666 0.43490 0.48329 0.04500
C 	C 	0.21658 0.47114 0.56534 -0.07300
C 	C 	0.26373 0.52076 0.58505 0.01700
C 	C 	0.28657 0.57053 0.53687 -0.01700
H 	H 	0.32256 0.60847 0.55277 0.04200
C 	C 	0.29019 0.52122 0.65488 0.01300
C 	C 	0.29770 0.55075 0.72580 -0.05700
C 	C 	0.32697 0.55636 0.78811 -0.02200
C 	C 	0.34858 0.53218 0.78016 -0.03400
C 	C 	0.34249 0.50429 0.70859 -0.01200
C 	C 	0.31385 0.49942 0.64576 -0.04500
C 	C 	0.19115 0.52159 0.37701 0.01800
C 	C 	0.16112 0.53513 0.38649 -0.04500
C 	C 	0.14582 0.54706 0.31746 -0.02100
C 	C 	0.15977 0.54466 0.23886 -0.04200
C 	C 	0.18823 0.52923 0.22910 -0.03000
C 	C 	0.20313 0.51660 0.29787 -0.05200
H 	H 	0.12358 0.55874 0.32493 0.02700
H 	H 	0.14861 0.55486 0.18554 0.03200
H 	H 	0.20031 0.52922 0.16852 0.01500
H 	H 	0.22643 0.50639 0.28986 0.03500
H 	H 	0.15115 0.53842 0.44721 0.03900
H 	H 	0.28140 0.56982 0.73232 0.03800
H 	H 	0.33334 0.58004 0.84205 0.03400
H 	H 	0.31058 0.47958 0.58990 0.06100
H 	H 	0.36044 0.48703 0.70131 0.04400
H 	H 	0.37114 0.53641 0.82843 0.04200
C 	C 	0.33932 0.57817 0.02868 -0.10600
C 	C 	0.35728 0.54952 0.01730 0.03400
C 	C 	0.32635 0.49415 0.98778 -0.02500
H 	H 	0.34005 0.47217 0.97752 0.04500
C 	C 	0.27833 0.46777 0.96890 -0.08300
C 	C 	0.26072 0.49693 0.98111 0.01100
C 	C 	0.29150 0.55165 0.01042 -0.00600
H 	H 	0.27773 0.57365 0.02040 -0.01500
C 	C 	0.21043 0.47186 0.96367 -0.02800
C 	C 	0.20032 0.48213 0.88592 -0.07800
C 	C 	0.16184 0.48189 0.87593 -0.03300
C 	C 	0.13531 0.47537 0.94426 -0.04900
C 	C 	0.14536 0.46562 0.02180 -0.03000
C 	C 	0.17999 0.45914 0.03034 -0.07000
C 	C 	0.40915 0.57860 0.02691 0.01400
C 	C 	0.42286 0.55454 0.07907 -0.04100
C 	C 	0.46830 0.56962 0.06914 -0.02300
C 	C 	0.50020 0.60886 0.00758 -0.02800
C 	C 	0.48821 0.63623 0.96005 -0.02900
C 	C 	0.44318 0.62207 0.97094 -0.04400
H 	H 	0.47833 0.54997 0.10794 0.03300
H 	H 	0.53493 0.61956 0.99866 0.03600
H 	H 	0.51366 0.66810 0.91446 0.04600
H 	H 	0.43394 0.64314 0.93363 0.04300
H 	H 	0.39732 0.52191 0.12401 0.04400
H 	H 	0.22448 0.49465 0.83479 0.03300
H 	H 	0.15434 0.48983 0.81580 0.03000
H 	H 	0.18709 0.45098 0.09078 0.03700
H 	H 	0.12650 0.46334 0.07527 0.03400
H 	H 	0.10725 0.47828 0.93726 0.03700
C 	C 	0.17501 0.22615 0.97951 -0.08200
C 	C 	0.18196 0.18800 0.95690 0.02200
C 	C 	0.20502 0.17636 0.01096 -0.01800
H 	H 	0.21344 0.15025 0.99118 0.01400
C 	C 	0.21940 0.20065 0.08891 -0.08000
C 	C 	0.20381 0.22969 0.11661 0.02200
C 	C 	0.18337 0.24413 0.06087 -0.01700
H 	H 	0.17548 0.27081 0.08021 0.03800
C 	C 	0.20681 0.24298 0.20382 0.02100
C 	C 	0.17483 0.19957 0.26171 -0.04300
C 	C 	0.17935 0.21175 0.34503 -0.02100
C 	C 	0.21542 0.26721 0.37066 -0.03700
C 	C 	0.24683 0.31065 0.31287 -0.01700
C 	C 	0.24251 0.29866 0.22962 -0.04500
C 	C 	0.16278 0.15792 0.87886 0.01000
C 	C 	0.19138 0.18212 0.80695 -0.04100
C 	C 	0.17019 0.16046 0.73064 -0.02800
C 	C 	0.12140 0.11197 0.72614 -0.04200
C 	C 	0.09337 0.08593 0.79796 -0.02600
C 	C 	0.11385 0.10906 0.87422 -0.04800
H 	H 	0.19112 0.18228 0.67502 0.03600
H 	H 	0.10517 0.09503 0.66699 0.02700
H 	H 	0.09144 0.09009 0.92937 0.03800
H 	H 	0.22922 0.21970 0.80990 0.04700
H 	H 	0.14707 0.15642 0.24221 0.03900
H 	H 	0.15514 0.17815 0.38977 0.02400
H 	H 	0.26731 0.33238 0.18533 0.04600
H 	H 	0.27494 0.35346 0.33252 0.03500
H 	H 	0.21923 0.27639 0.43527 0.03200
C 	C 	0.29888 0.35023 0.60665 -0.08600
C 	C 	0.31540 0.37131 0.52506 0.02200
C 	C 	0.32647 0.34515 0.47338 -0.02400
H 	H 	0.33930 0.36136 0.41109 0.03500
C 	C 	0.31823 0.29624 0.50013 -0.08200
C 	C 	0.30604 0.27861 0.58366 0.02100
C 	C 	0.30374 0.31163 0.63800 -0.01700
H 	H 	0.29459 0.29831 0.70208 0.03600
C 	C 	0.28631 0.22098 0.61104 0.02000
C 	C 	0.24604 0.17292 0.57163 -0.04400
C 	C 	0.22175 0.11879 0.60631 -0.01700
C 	C 	0.23690 0.11225 0.68073 -0.04000
C 	C 	0.27778 0.15957 0.71888 -0.02100
C 	C 	0.30295 0.21374 0.68357 -0.05200
C 	C 	0.31821 0.41803 0.49096 0.00200
C 	C 	0.36365 0.47044 0.47089 -0.04600
C 	C 	0.36681 0.51139 0.42486 -0.02400
C 	C 	0.32476 0.50143 0.40180 -0.03400
C 	C 	0.27939 0.44945 0.42166 -0.02600
C 	C 	0.27600 0.40745 0.46498 -0.03500
H 	H 	0.40183 0.55013 0.40510 0.03900
H 	H 	0.32734 0.53366 0.36743 0.04800
H 	H 	0.24685 0.44135 0.40237 0.03700
H 	H 	0.24078 0.36642 0.47650 0.01900
H 	H 	0.39647 0.47855 0.48835 0.03800
H 	H 	0.23207 0.17775 0.51664 0.04800
H 	H 	0.19017 0.08207 0.57694 0.03300
H 	H 	0.33423 0.25024 0.71411 0.04100
H 	H 	0.28964 0.15436 0.77637 0.02300
H 	H 	0.21677 0.07049 0.70907 0.03500
Zn	Zn	0.20531 0.83871 0.78388 1.22100
Zn	Zn	0.16055 0.79729 0.60198 1.19900
Zn	Zn	0.11423 0.82338 0.72109 1.21900
Zn	Zn	0.14494 0.83651 0.92012 1.19900
H 	H 	0.11531 0.74081 0.73536 0.18500
C 	C 	0.19172 0.91719 0.61327 0.29400
O 	O 	0.20563 0.87052 0.97549 -0.45800
O 	O 	0.25926 0.89946 0.86889 -0.37800
O 	O 	0.13902 0.78128 0.71784 -0.78100
O 	O 	0.21463 0.79903 0.61040 -0.48700
O 	O 	0.19572 0.77824 0.85105 -0.43400
O 	O 	0.26003 0.87062 0.70108 -0.41900
O 	O 	0.13300 0.75753 0.92574 -0.40900
O 	O 	0.11851 0.80114 0.53627 -0.48100
H 	H 	0.19234 0.90643 0.79713 0.18000
O 	O 	0.16974 0.86495 0.80590 -0.79500
O 	O 	0.14893 0.89226 0.64725 -0.43100
O 	O 	0.20855 0.89005 0.61029 -0.41700
C 	C 	0.24707 0.91024 0.93755 0.28800
C 	C 	0.25679 0.84240 0.63725 0.32300
C 	C 	0.16727 0.75462 0.91601 0.31500
Zn	Zn	0.38214 0.69307 0.22143 1.22400
Zn	Zn	0.39139 0.74723 0.39541 1.19700
C 	C 	0.25864 0.70594 0.13133 0.28700
Zn	Zn	0.30403 0.70008 0.28229 1.21900
Zn	Zn	0.32490 0.68610 0.08249 1.19200
H 	H 	0.39223 0.78672 0.25662 0.18300
C 	C 	0.29239 0.62313 0.41211 0.30000
O 	O 	0.36551 0.67099 0.03215 -0.46200
O 	O 	0.38071 0.63838 0.14194 -0.38800
O 	O 	0.37509 0.74823 0.28054 -0.79200
O 	O 	0.44296 0.74173 0.38229 -0.46600
O 	O 	0.43818 0.75736 0.15928 -0.44100
O 	O 	0.39847 0.66260 0.30515 -0.44300
O 	O 	0.39281 0.77269 0.09236 -0.41400
O 	O 	0.34815 0.74826 0.46643 -0.46300
H 	H 	0.29376 0.61646 0.20426 0.17500
O 	O 	0.30604 0.75400 0.36822 -0.39500
O 	O 	0.31534 0.65825 0.19819 -0.78900
O 	O 	0.29726 0.72459 0.08777 -0.45000
O 	O 	0.27053 0.63686 0.36757 -0.42600
O 	O 	0.25881 0.70270 0.21291 -0.41400
O 	O 	0.33977 0.65521 0.40907 -0.41400
C 	C 	0.36815 0.63383 0.06498 0.30600
C 	C 	0.43428 0.69628 0.35466 0.32700
C 	C 	0.43390 0.78301 0.10043 0.31300
C 	C 	0.32523 0.76594 0.44204 0.29600
C 	C 	0.98257 0.79618 0.89224 0.02900
C 	C 	0.95395 0.79530 0.95172 -0.02000
H 	H 	0.91774 0.77853 0.93651 0.03400
C 	C 	0.97000 0.81059 0.03267 -0.07800
H 	H 	0.08236 0.85216 0.00734 -0.00100
C 	C 	0.96469 0.77996 0.80744 0.01500
C 	C 	0.92187 0.72476 0.79210 -0.04800
C 	C 	0.90080 0.71174 0.71473 -0.02700
C 	C 	0.92299 0.75310 0.65178 -0.03100
C 	C 	0.96588 0.80790 0.66641 -0.02600
H 	H 	0.86765 0.66945 0.70319 0.03400
H 	H 	0.90692 0.74267 0.59168 0.01700
H 	H 	0.90446 0.69240 0.84052 0.04200
H 	H 	0.07910 0.83425 0.14639 0.03500
H 	H 	0.10080 0.86391 0.28976 0.03400
C 	C 	0.96261 0.68141 0.38452 -0.08400
H 	H 	0.08461 0.77889 0.39224 0.04000
C 	C 	0.98949 0.68266 0.52058 0.02800
C 	C 	0.95202 0.65832 0.46441 -0.02200
H 	H 	0.91470 0.62684 0.48533 0.04200
C 	C 	0.98164 0.65166 0.59734 0.00800
C 	C 	0.99233 0.61537 0.60053 -0.05500
C 	C 	0.98826 0.58922 0.67498 -0.02700
C 	C 	0.97375 0.59942 0.74623 -0.04300
C 	C 	0.96298 0.63548 0.74289 -0.02300
C 	C 	0.96589 0.66052 0.66835 -0.04200
H 	H 	0.97913 0.72318 0.20948 0.04900
H 	H 	0.95824 0.68896 0.66639 0.05500
H 	H 	0.95187 0.64356 0.79770 0.03400
H 	H 	0.97054 0.57913 0.80383 0.03700
C 	C 	0.26397 0.07148 0.46739 -0.07300
C 	C 	0.21638 0.02215 0.44870 0.01600
C 	C 	0.19292 0.97270 0.49829 -0.02000
H 	H 	0.15666 0.93491 0.48330 0.04500
C 	C 	0.21658 0.97115 0.56534 -0.07200
C 	C 	0.26373 0.02076 0.58506 0.01600
C 	C 	0.28657 0.07053 0.53687 -0.01800
H 	H 	0.32257 0.10847 0.55277 0.04200
C 	C 	0.29020 0.02122 0.65488 0.00900
C 	C 	0.29770 0.05075 0.72580 -0.05500
C 	C 	0.32697 0.05636 0.78811 -0.02500
C 	C 	0.34858 0.03218 0.78016 -0.03100
C 	C 	0.34249 0.00429 0.70859 -0.01800
C 	C 	0.31385 0.99942 0.64576 -0.03800
C 	C 	0.19115 0.02159 0.37701 0.01900
C 	C 	0.16112 0.03513 0.38649 -0.04500
C 	C 	0.14582 0.04706 0.31745 -0.02100
C 	C 	0.15977 0.04466 0.23886 -0.04200
C 	C 	0.18823 0.02923 0.22910 -0.03000
C 	C 	0.20314 0.01660 0.29787 -0.05200
H 	H 	0.12358 0.05874 0.32493 0.02700
H 	H 	0.14861 0.05486 0.18553 0.03200
H 	H 	0.20032 0.02922 0.16852 0.01500
H 	H 	0.22643 0.00639 0.28986 0.03500
H 	H 	0.15116 0.03842 0.44720 0.03900
H 	H 	0.28140 0.06982 0.73232 0.03700
H 	H 	0.33334 0.08004 0.84205 0.03400
H 	H 	0.31058 0.97959 0.58990 0.05900
H 	H 	0.36044 0.98704 0.70131 0.04700
H 	H 	0.37114 0.03641 0.82843 0.04100
C 	C 	0.33932 0.07817 0.02868 -0.10500
C 	C 	0.35728 0.04952 0.01730 0.03100
C 	C 	0.32635 0.99415 0.98778 -0.02200
H 	H 	0.34005 0.97216 0.97752 0.04500
C 	C 	0.27833 0.96777 0.96890 -0.08400
C 	C 	0.26072 0.99693 0.98111 0.01400
C 	C 	0.29150 0.05165 0.01042 -0.00900
H 	H 	0.27773 0.07365 0.02040 -0.01500
C 	C 	0.21043 0.97186 0.96367 -0.02900
C 	C 	0.20032 0.98213 0.88592 -0.07700
C 	C 	0.16184 0.98189 0.87594 -0.03300
C 	C 	0.13531 0.97537 0.94426 -0.04900
C 	C 	0.14536 0.96562 0.02180 -0.03000
C 	C 	0.17999 0.95914 0.03035 -0.07000
C 	C 	0.40915 0.07860 0.02691 0.01500
C 	C 	0.42286 0.05454 0.07907 -0.04200
C 	C 	0.46830 0.06962 0.06914 -0.02300
C 	C 	0.50020 0.10886 0.00758 -0.02900
C 	C 	0.48821 0.13623 0.96005 -0.02900
C 	C 	0.44318 0.12207 0.97094 -0.04500
H 	H 	0.47833 0.04996 0.10794 0.03200
H 	H 	0.53492 0.11956 0.99866 0.03600
H 	H 	0.51366 0.16810 0.91445 0.04600
H 	H 	0.43394 0.14314 0.93363 0.04400
H 	H 	0.39732 0.02191 0.12401 0.04400
H 	H 	0.22447 0.99465 0.83479 0.03300
H 	H 	0.15434 0.98983 0.81581 0.03000
H 	H 	0.18709 0.95098 0.09078 0.03700
H 	H 	0.12650 0.96334 0.07528 0.03400
H 	H 	0.10725 0.97828 0.93727 0.03700
C 	C 	0.17501 0.72615 0.97951 -0.08200
C 	C 	0.18196 0.68800 0.95690 0.02200
C 	C 	0.20502 0.67635 0.01096 -0.01800
H 	H 	0.21344 0.65025 0.99118 0.01400
C 	C 	0.21940 0.70065 0.08891 -0.08000
C 	C 	0.20381 0.72969 0.11661 0.02200
C 	C 	0.18337 0.74413 0.06087 -0.01700
H 	H 	0.17548 0.77080 0.08020 0.03800
C 	C 	0.20681 0.74298 0.20382 0.02100
C 	C 	0.17483 0.69957 0.26171 -0.04300
C 	C 	0.17935 0.71175 0.34503 -0.02100
C 	C 	0.21542 0.76721 0.37066 -0.03700
C 	C 	0.24683 0.81065 0.31287 -0.01700
C 	C 	0.24250 0.79865 0.22962 -0.04500
C 	C 	0.16277 0.65792 0.87886 0.01100
C 	C 	0.19138 0.68212 0.80695 -0.04000
C 	C 	0.17018 0.66046 0.73064 -0.02800
C 	C 	0.12140 0.61197 0.72614 -0.04200
C 	C 	0.09337 0.58593 0.79796 -0.02600
C 	C 	0.11385 0.60906 0.87422 -0.04800
H 	H 	0.19112 0.68228 0.67502 0.03600
H 	H 	0.10517 0.59503 0.66698 0.02800
H 	H 	0.09144 0.59009 0.92937 0.03900
H 	H 	0.22922 0.71970 0.80990 0.04700
H 	H 	0.14707 0.65642 0.24221 0.04000
H 	H 	0.15514 0.67815 0.38977 0.02400
H 	H 	0.26731 0.83238 0.18533 0.04600
H 	H 	0.27494 0.85346 0.33252 0.03500
H 	H 	0.21923 0.77639 0.43526 0.03200
C 	C 	0.29888 0.85023 0.60665 -0.08600
C 	C 	0.31539 0.87131 0.52506 0.02200
C 	C 	0.32647 0.84515 0.47338 -0.02400
H 	H 	0.33930 0.86136 0.41109 0.03500
C 	C 	0.31823 0.79624 0.50013 -0.08200
C 	C 	0.30604 0.77861 0.58366 0.02100
C 	C 	0.30374 0.81163 0.63799 -0.01700
H 	H 	0.29459 0.79831 0.70208 0.03600
C 	C 	0.28632 0.72098 0.61104 0.02000
C 	C 	0.24604 0.67292 0.57163 -0.04400
C 	C 	0.22175 0.61879 0.60631 -0.01700
C 	C 	0.23690 0.61225 0.68073 -0.04000
C 	C 	0.27779 0.65958 0.71889 -0.02100
C 	C 	0.30295 0.71374 0.68357 -0.05200
C 	C 	0.31820 0.91803 0.49096 0.00200
C 	C 	0.36365 0.97044 0.47089 -0.04400
C 	C 	0.36681 0.01139 0.42485 -0.02600
C 	C 	0.32475 0.00143 0.40179 -0.03600
C 	C 	0.27939 0.94945 0.42166 -0.02400
C 	C 	0.27599 0.90745 0.46498 -0.03500
H 	H 	0.40183 0.05013 0.40510 0.03900
H 	H 	0.32734 0.03366 0.36742 0.04900
H 	H 	0.24685 0.94135 0.40237 0.03600
H 	H 	0.24078 0.86642 0.47650 0.01900
H 	H 	0.39647 0.97855 0.48835 0.03800
H 	H 	0.23207 0.67775 0.51664 0.04800
H 	H 	0.19017 0.58207 0.57694 0.03300
H 	H 	0.33423 0.75025 0.71411 0.04100
H 	H 	0.28965 0.65436 0.77637 0.02300
H 	H 	0.21677 0.57050 0.70908 0.03500
Zn	Zn	0.70531 0.33871 0.78388 1.22100
Zn	Zn	0.66055 0.29729 0.60198 1.19900
C 	C 	0.55308 0.29920 0.86477 0.29800
Zn	Zn	0.61423 0.32338 0.72109 1.21900
Zn	Zn	0.64494 0.33651 0.92012 1.19900
H 	H 	0.61531 0.24081 0.73536 0.18500
C 	C 	0.69172 0.41718 0.61327 0.29400
O 	O 	0.70563 0.37052 0.97549 -0.45800
O 	O 	0.75926 0.39946 0.86889 -0.37800
O 	O 	0.63902 0.28128 0.71784 -0.78100
O 	O 	0.71463 0.29903 0.61040 -0.48700
O 	O 	0.69572 0.27824 0.85105 -0.43400
O 	O 	0.76003 0.37062 0.70108 -0.41900
O 	O 	0.63300 0.25753 0.92574 -0.40900
O 	O 	0.61851 0.30114 0.53627 -0.48100
H 	H 	0.69234 0.40643 0.79713 0.18000
O 	O 	0.56065 0.27237 0.63125 -0.40100
O 	O 	0.66974 0.36495 0.80590 -0.79500
O 	O 	0.57415 0.28273 0.90277 -0.46400
O 	O 	0.64893 0.39226 0.64724 -0.43100
O 	O 	0.56136 0.31229 0.78574 -0.42500
O 	O 	0.70855 0.39005 0.61029 -0.41700
C 	C 	0.74707 0.41024 0.93755 0.28700
C 	C 	0.75679 0.34240 0.63725 0.32300
C 	C 	0.66727 0.25463 0.91601 0.31500
C 	C 	0.57298 0.26951 0.55722 0.30300
Zn	Zn	0.88214 0.19307 0.22143 1.22400
Zn	Zn	0.89139 0.24723 0.39541 1.19700
C 	C 	0.75865 0.20594 0.13133 0.28700
Zn	Zn	0.80403 0.20009 0.28229 1.21900
Zn	Zn	0.82490 0.18610 0.08249 1.19200
H 	H 	0.89224 0.28672 0.25662 0.18300
C 	C 	0.79239 0.12313 0.41211 0.30000
O 	O 	0.86551 0.17099 0.03215 -0.46200
O 	O 	0.88071 0.13838 0.14194 -0.38800
O 	O 	0.87509 0.24823 0.28054 -0.79200
O 	O 	0.94296 0.24173 0.38229 -0.46600
O 	O 	0.93818 0.25736 0.15928 -0.44100
O 	O 	0.89847 0.16260 0.30515 -0.44300
O 	O 	0.89281 0.27269 0.09236 -0.41400
O 	O 	0.84815 0.24826 0.46643 -0.46300
H 	H 	0.79376 0.11646 0.20426 0.17500
O 	O 	0.80604 0.25400 0.36822 -0.39500
O 	O 	0.81534 0.15825 0.19819 -0.78900
O 	O 	0.79727 0.22459 0.08777 -0.45000
O 	O 	0.77053 0.13686 0.36757 -0.42600
O 	O 	0.75881 0.20270 0.21291 -0.41400
O 	O 	0.83977 0.15521 0.40907 -0.41400
C 	C 	0.86815 0.13383 0.06498 0.30600
C 	C 	0.93428 0.19627 0.35466 0.32600
C 	C 	0.93390 0.28301 0.10043 0.31200
C 	C 	0.82523 0.26594 0.44204 0.29600
C 	C 	0.52810 0.31343 0.91443 -0.09500
C 	C 	0.48257 0.29618 0.89224 0.02700
C 	C 	0.45395 0.29530 0.95171 -0.01900
H 	H 	0.41774 0.27853 0.93651 0.03300
C 	C 	0.47000 0.31059 0.03267 -0.08000
C 	C 	0.51881 0.33800 0.04986 0.02500
C 	C 	0.54693 0.33736 0.99138 -0.02000
H 	H 	0.58237 0.35216 0.00734 -0.00000
C 	C 	0.53949 0.36434 0.13115 0.01400
C 	C 	0.52897 0.39636 0.16717 -0.04800
C 	C 	0.54181 0.41347 0.24833 -0.02800
C 	C 	0.56658 0.40047 0.29307 -0.03800
C 	C 	0.58029 0.37236 0.25581 -0.02000
C 	C 	0.56741 0.35494 0.17483 -0.04600
C 	C 	0.46469 0.27996 0.80744 0.01600
C 	C 	0.42187 0.22476 0.79210 -0.04900
C 	C 	0.40080 0.21174 0.71473 -0.02700
C 	C 	0.42299 0.25310 0.65178 -0.03100
C 	C 	0.46588 0.30789 0.66641 -0.02500
C 	C 	0.48636 0.32164 0.74433 -0.03600
H 	H 	0.36765 0.16944 0.70319 0.03400
H 	H 	0.40692 0.24267 0.59168 0.01700
H 	H 	0.48292 0.33995 0.61769 0.02600
H 	H 	0.51869 0.36471 0.75595 0.04500
H 	H 	0.40446 0.19240 0.84052 0.04200
H 	H 	0.50980 0.40669 0.13302 0.04000
H 	H 	0.53248 0.43674 0.27658 0.02300
H 	H 	0.57911 0.33425 0.14639 0.03500
H 	H 	0.60080 0.36391 0.28976 0.03300
H 	H 	0.57584 0.41300 0.35626 0.03500
C 	C 	0.46262 0.18141 0.38452 -0.08600
C 	C 	0.51072 0.21461 0.35602 0.02300
C 	C 	0.54747 0.24595 0.41302 -0.01600
H 	H 	0.58461 0.27888 0.39224 0.04000
C 	C 	0.53618 0.23237 0.49673 -0.09400
C 	C 	0.48949 0.18266 0.52058 0.02600
C 	C 	0.45202 0.15832 0.46441 -0.02000
H 	H 	0.41470 0.12684 0.48533 0.04100
C 	C 	0.48164 0.15166 0.59734 0.00900
C 	C 	0.49233 0.11537 0.60053 -0.05700
C 	C 	0.48826 0.08922 0.67498 -0.02600
C 	C 	0.47374 0.09942 0.74623 -0.04400
C 	C 	0.46298 0.13547 0.74288 -0.02200
C 	C 	0.46589 0.16052 0.66835 -0.04300
C 	C 	0.52241 0.20812 0.27233 0.00800
C 	C 	0.55574 0.19938 0.26184 -0.04700
C 	C 	0.57465 0.20502 0.18391 -0.02300
C 	C 	0.55975 0.21818 0.11603 -0.04200
C 	C 	0.52298 0.22096 0.12485 -0.02100
C 	C 	0.50470 0.21662 0.20287 -0.03600
H 	H 	0.60118 0.19974 0.17631 0.03300
H 	H 	0.57599 0.22508 0.05635 0.04000
H 	H 	0.51017 0.22906 0.07167 0.04800
H 	H 	0.47913 0.22318 0.20948 0.04700
H 	H 	0.56820 0.19020 0.31441 0.03600
H 	H 	0.50428 0.10801 0.54566 0.03300
H 	H 	0.49667 0.06139 0.67756 0.02600
H 	H 	0.45824 0.18896 0.66639 0.05500
H 	H 	0.45187 0.14356 0.79770 0.03400
H 	H 	0.47054 0.07913 0.80383 0.03700
C 	C 	0.76397 0.57147 0.46739 -0.07400
C 	C 	0.71638 0.52215 0.44870 0.01800
C 	C 	0.69292 0.47270 0.49829 -0.02200
H 	H 	0.65666 0.43490 0.48329 0.04500
C 	C 	0.71658 0.47114 0.56534 -0.07300
C 	C 	0.76373 0.52076 0.58505 0.01700
C 	C 	0.78657 0.57053 0.53687 -0.01700
H 	H 	0.82256 0.60847 0.55277 0.04200
C 	C 	0.79020 0.52122 0.65488 0.01300
C 	C 	0.79770 0.55075 0.72580 -0.05700
C 	C 	0.82697 0.55636 0.78811 -0.02200
C 	C 	0.84858 0.53218 0.78016 -0.03400
C 	C 	0.84249 0.50429 0.70859 -0.01200
C 	C 	0.81385 0.49942 0.64576 -0.04500
C 	C 	0.69115 0.52159 0.37701 0.01800
C 	C 	0.66112 0.53513 0.38649 -0.04500
C 	C 	0.64582 0.54706 0.31746 -0.02100
C 	C 	0.65977 0.54466 0.23886 -0.04200
C 	C 	0.68823 0.52923 0.22910 -0.03000
C 	C 	0.70313 0.51660 0.29787 -0.05200
H 	H 	0.62358 0.55874 0.32493 0.02800
H 	H 	0.64861 0.55486 0.18554 0.03200
H 	H 	0.70031 0.52922 0.16852 0.01500
H 	H 	0.72643 0.50639 0.28986 0.03500
H 	H 	0.65116 0.53842 0.44721 0.03900
H 	H 	0.78140 0.56982 0.73232 0.03800
H 	H 	0.83334 0.58004 0.84205 0.03400
H 	H 	0.81058 0.47958 0.58990 0.06100
H 	H 	0.86044 0.48703 0.70131 0.04400
H 	H 	0.87114 0.53641 0.82843 0.04200
C 	C 	0.83932 0.57817 0.02868 -0.10600
C 	C 	0.85728 0.54952 0.01730 0.03300
C 	C 	0.82635 0.49415 0.98778 -0.02500
H 	H 	0.84005 0.47217 0.97752 0.04500
C 	C 	0.77833 0.46777 0.96890 -0.08300
C 	C 	0.76072 0.49693 0.98111 0.01100
C 	C 	0.79150 0.55165 0.01042 -0.00600
H 	H 	0.77773 0.57365 0.02040 -0.01500
C 	C 	0.71043 0.47186 0.96367 -0.02800
C 	C 	0.70032 0.48213 0.88592 -0.07800
C 	C 	0.66184 0.48189 0.87593 -0.03300
C 	C 	0.63531 0.47537 0.94426 -0.04900
C 	C 	0.64536 0.46562 0.02180 -0.03000
C 	C 	0.67999 0.45914 0.03034 -0.07000
C 	C 	0.90915 0.57860 0.02691 0.01500
C 	C 	0.92286 0.55454 0.07907 -0.04300
C 	C 	0.96830 0.56962 0.06914 -0.02000
C 	C 	0.98821 0.63623 0.96005 -0.02500
C 	C 	0.94318 0.62207 0.97094 -0.04600
H 	H 	0.97833 0.54997 0.10794 0.03200
H 	H 	0.93394 0.64314 0.93363 0.04400
H 	H 	0.89732 0.52191 0.12401 0.04400
H 	H 	0.72447 0.49465 0.83479 0.03300
H 	H 	0.65434 0.48983 0.81580 0.03000
H 	H 	0.68709 0.45098 0.09078 0.03700
H 	H 	0.62650 0.46334 0.07527 0.03400
H 	H 	0.60725 0.47828 0.93726 0.03700
C 	C 	0.67501 0.22615 0.97951 -0.08200
C 	C 	0.68196 0.18800 0.95690 0.02200
C 	C 	0.70502 0.17636 0.01096 -0.01800
H 	H 	0.71344 0.15025 0.99118 0.01400
C 	C 	0.71940 0.20065 0.08891 -0.08000
C 	C 	0.70381 0.22969 0.11661 0.02200
C 	C 	0.68337 0.24413 0.06087 -0.01700
H 	H 	0.67548 0.27081 0.08021 0.03800
C 	C 	0.70681 0.24298 0.20382 0.02100
C 	C 	0.67483 0.19957 0.26171 -0.04300
C 	C 	0.67935 0.21175 0.34503 -0.02100
C 	C 	0.71542 0.26721 0.37066 -0.03700
C 	C 	0.74683 0.31065 0.31287 -0.01700
C 	C 	0.74251 0.29866 0.22962 -0.04500
C 	C 	0.66278 0.15792 0.87886 0.01100
C 	C 	0.69138 0.18212 0.80695 -0.04100
C 	C 	0.67019 0.16046 0.73064 -0.02800
C 	C 	0.62140 0.11197 0.72614 -0.04200
C 	C 	0.59337 0.08593 0.79796 -0.02600
C 	C 	0.61385 0.10906 0.87422 -0.04800
H 	H 	0.69112 0.18228 0.67502 0.03600
H 	H 	0.60517 0.09503 0.66699 0.02800
H 	H 	0.55551 0.04863 0.79439 0.02900
H 	H 	0.59144 0.09009 0.92937 0.03900
H 	H 	0.72922 0.21970 0.80990 0.04700
H 	H 	0.64707 0.15642 0.24221 0.04000
H 	H 	0.65514 0.17815 0.38977 0.02400
H 	H 	0.76731 0.33238 0.18533 0.04600
H 	H 	0.77494 0.35346 0.33252 0.03500
H 	H 	0.71923 0.27639 0.43527 0.03200
C 	C 	0.79888 0.35023 0.60665 -0.08600
C 	C 	0.81540 0.37131 0.52506 0.02200
C 	C 	0.82647 0.34515 0.47338 -0.02400
H 	H 	0.83930 0.36136 0.41109 0.03500
C 	C 	0.81823 0.29624 0.50013 -0.08200
C 	C 	0.80604 0.27861 0.58366 0.02100
C 	C 	0.80374 0.31163 0.63800 -0.01700
H 	H 	0.79459 0.29831 0.70208 0.03600
C 	C 	0.78631 0.22098 0.61104 0.02000
C 	C 	0.74604 0.17292 0.57163 -0.04400
C 	C 	0.72175 0.11879 0.60631 -0.01700
C 	C 	0.73690 0.11225 0.68073 -0.04000
C 	C 	0.77778 0.15957 0.71888 -0.02100
C 	C 	0.80295 0.21374 0.68357 -0.05200
C 	C 	0.81820 0.41803 0.49096 0.00200
C 	C 	0.86365 0.47044 0.47089 -0.04600
C 	C 	0.86681 0.51139 0.42486 -0.02400
C 	C 	0.82476 0.50143 0.40180 -0.03400
C 	C 	0.77939 0.44945 0.42166 -0.02600
C 	C 	0.77600 0.40745 0.46498 -0.03500
H 	H 	0.90183 0.55013 0.40510 0.03900
H 	H 	0.82734 0.53366 0.36743 0.04800
H 	H 	0.74685 0.44135 0.40237 0.03700
H 	H 	0.74078 0.36642 0.47650 0.01900
H 	H 	0.89647 0.47855 0.48835 0.03800
H 	H 	0.73207 0.17775 0.51664 0.04800
H 	H 	0.69017 0.08207 0.57694 0.03300
H 	H 	0.83423 0.25024 0.71411 0.04100
H 	H 	0.78965 0.15436 0.77637 0.02300
H 	H 	0.71677 0.07049 0.70907 0.03500
Zn	Zn	0.70531 0.83871 0.78388 1.22100
Zn	Zn	0.66055 0.79729 0.60198 1.19900
C 	C 	0.55308 0.79920 0.86477 0.29800
Zn	Zn	0.61423 0.82338 0.72109 1.21900
Zn	Zn	0.64494 0.83651 0.92012 1.19900
H 	H 	0.61531 0.74081 0.73536 0.18500
C 	C 	0.69172 0.91719 0.61327 0.29400
O 	O 	0.70563 0.87052 0.97549 -0.45800
O 	O 	0.75926 0.89946 0.86889 -0.37800
O 	O 	0.63902 0.78128 0.71784 -0.78100
O 	O 	0.71463 0.79903 0.61040 -0.48700
O 	O 	0.69572 0.77824 0.85105 -0.43400
O 	O 	0.76003 0.87062 0.70108 -0.41900
O 	O 	0.63300 0.75753 0.92574 -0.40900
O 	O 	0.61851 0.80114 0.53627 -0.48100
H 	H 	0.69234 0.90643 0.79713 0.18000
O 	O 	0.56065 0.77238 0.63125 -0.40100
O 	O 	0.66974 0.86495 0.80590 -0.79500
O 	O 	0.57415 0.78273 0.90277 -0.46400
O 	O 	0.64892 0.89226 0.64725 -0.43100
O 	O 	0.56136 0.81229 0.78574 -0.42500
O 	O 	0.70855 0.89005 0.61029 -0.41700
C 	C 	0.74707 0.91024 0.93755 0.28800
C 	C 	0.75679 0.84240 0.63725 0.32300
C 	C 	0.66727 0.75462 0.91601 0.31500
C 	C 	0.57298 0.76951 0.55722 0.30300
Zn	Zn	0.88214 0.69307 0.22143 1.22400
Zn	Zn	0.89139 0.74723 0.39541 1.19700
C 	C 	0.75864 0.70594 0.13133 0.28700
Zn	Zn	0.80403 0.70008 0.28229 1.21900
Zn	Zn	0.82490 0.68610 0.08249 1.19200
H 	H 	0.89223 0.78672 0.25662 0.18300
C 	C 	0.79239 0.62313 0.41211 0.30000
O 	O 	0.86551 0.67099 0.03215 -0.46200
O 	O 	0.88071 0.63838 0.14194 -0.38800
O 	O 	0.87509 0.74823 0.28054 -0.79200
O 	O 	0.94296 0.74173 0.38229 -0.46500
O 	O 	0.93818 0.75736 0.15928 -0.44100
O 	O 	0.89846 0.66260 0.30515 -0.44300
O 	O 	0.89281 0.77269 0.09236 -0.41400
O 	O 	0.84815 0.74826 0.46643 -0.46300
H 	H 	0.79376 0.61646 0.20426 0.17500
O 	O 	0.80604 0.75400 0.36822 -0.39500
O 	O 	0.81534 0.65825 0.19819 -0.78900
O 	O 	0.79727 0.72459 0.08777 -0.45000
O 	O 	0.77053 0.63686 0.36757 -0.42600
O 	O 	0.75881 0.70270 0.21291 -0.41400
O 	O 	0.83977 0.65521 0.40907 -0.41400
C 	C 	0.86815 0.63383 0.06498 0.30600
C 	C 	0.93428 0.69628 0.35466 0.32600
C 	C 	0.93390 0.78301 0.10043 0.31200
C 	C 	0.82522 0.76594 0.44204 0.29600
C 	C 	0.52810 0.81343 0.91443 -0.09500
C 	C 	0.48257 0.79618 0.89224 0.02700
C 	C 	0.45395 0.79530 0.95172 -0.01900
H 	H 	0.41774 0.77853 0.93651 0.03400
C 	C 	0.47000 0.81059 0.03267 -0.08000
C 	C 	0.51881 0.83800 0.04986 0.02500
C 	C 	0.54693 0.83736 0.99138 -0.02000
H 	H 	0.58237 0.85216 0.00734 -0.00000
C 	C 	0.53949 0.86433 0.13116 0.01400
C 	C 	0.52897 0.89636 0.16717 -0.04800
C 	C 	0.54181 0.91347 0.24833 -0.02800
C 	C 	0.56658 0.90047 0.29307 -0.03700
C 	C 	0.58029 0.87236 0.25581 -0.02000
C 	C 	0.56741 0.85494 0.17483 -0.04600
C 	C 	0.46469 0.77996 0.80744 0.01600
C 	C 	0.42187 0.72476 0.79210 -0.04900
C 	C 	0.40080 0.71174 0.71473 -0.02700
C 	C 	0.42299 0.75310 0.65178 -0.03100
C 	C 	0.46588 0.80790 0.66641 -0.02500
C 	C 	0.48636 0.82164 0.74433 -0.03600
H 	H 	0.36765 0.66945 0.70319 0.03400
H 	H 	0.40692 0.74267 0.59168 0.01700
H 	H 	0.48292 0.83995 0.61769 0.02600
H 	H 	0.51869 0.86471 0.75595 0.04500
H 	H 	0.40447 0.69240 0.84052 0.04200
H 	H 	0.50980 0.90669 0.13302 0.04000
H 	H 	0.53248 0.93674 0.27658 0.02300
H 	H 	0.57910 0.83425 0.14639 0.03500
H 	H 	0.60080 0.86391 0.28976 0.03400
H 	H 	0.57584 0.91300 0.35626 0.03600
C 	C 	0.46261 0.68141 0.38452 -0.08600
C 	C 	0.51072 0.71461 0.35602 0.02300
C 	C 	0.54747 0.74596 0.41302 -0.01600
H 	H 	0.58461 0.77889 0.39224 0.04000
C 	C 	0.53618 0.73237 0.49673 -0.09400
C 	C 	0.48949 0.68266 0.52058 0.02600
C 	C 	0.45202 0.65832 0.46441 -0.02000
H 	H 	0.41470 0.62684 0.48533 0.04100
C 	C 	0.48164 0.65166 0.59734 0.00900
C 	C 	0.49233 0.61537 0.60053 -0.05700
C 	C 	0.48826 0.58922 0.67498 -0.02600
C 	C 	0.47375 0.59942 0.74623 -0.04300
C 	C 	0.46298 0.63548 0.74289 -0.02200
C 	C 	0.46589 0.66052 0.66835 -0.04300
C 	C 	0.52241 0.70812 0.27233 0.00900
C 	C 	0.55574 0.69938 0.26184 -0.04700
C 	C 	0.57465 0.70503 0.18391 -0.02300
C 	C 	0.55975 0.71818 0.11603 -0.04200
C 	C 	0.52298 0.72096 0.12485 -0.02100
C 	C 	0.50470 0.71662 0.20287 -0.03600
H 	H 	0.60118 0.69975 0.17631 0.03300
H 	H 	0.57599 0.72508 0.05635 0.04000
H 	H 	0.51017 0.72906 0.07167 0.04800
H 	H 	0.47913 0.72318 0.20948 0.04700
H 	H 	0.56820 0.69020 0.31441 0.03600
H 	H 	0.50428 0.60801 0.54566 0.03300
H 	H 	0.49668 0.56140 0.67756 0.02700
H 	H 	0.45824 0.68896 0.66639 0.05500
H 	H 	0.45187 0.64356 0.79770 0.03400
H 	H 	0.47054 0.57913 0.80383 0.03700
C 	C 	0.76397 0.07148 0.46739 -0.07300
C 	C 	0.71638 0.02215 0.44870 0.01600
C 	C 	0.69292 0.97270 0.49829 -0.02000
H 	H 	0.65666 0.93491 0.48330 0.04500
C 	C 	0.71658 0.97115 0.56534 -0.07200
C 	C 	0.76373 0.02076 0.58506 0.01600
C 	C 	0.78657 0.07053 0.53687 -0.01800
H 	H 	0.82256 0.10847 0.55277 0.04200
C 	C 	0.79020 0.02122 0.65488 0.00900
C 	C 	0.79770 0.05075 0.72580 -0.05500
C 	C 	0.82697 0.05636 0.78811 -0.02500
C 	C 	0.84858 0.03218 0.78016 -0.03100
C 	C 	0.84249 0.00429 0.70859 -0.01800
C 	C 	0.81385 0.99942 0.64576 -0.03800
C 	C 	0.69115 0.02159 0.37701 0.01900
C 	C 	0.66112 0.03513 0.38649 -0.04500
C 	C 	0.64582 0.04706 0.31745 -0.02100
C 	C 	0.65977 0.04466 0.23886 -0.04200
C 	C 	0.68823 0.02923 0.22910 -0.03000
C 	C 	0.70314 0.01660 0.29787 -0.05200
H 	H 	0.62358 0.05874 0.32493 0.02700
H 	H 	0.64861 0.05486 0.18553 0.03200
H 	H 	0.70032 0.02922 0.16852 0.01500
H 	H 	0.72643 0.00639 0.28986 0.03500
H 	H 	0.65115 0.03842 0.44720 0.03900
H 	H 	0.78140 0.06982 0.73232 0.03700
H 	H 	0.83334 0.08004 0.84205 0.03400
H 	H 	0.81058 0.97959 0.58990 0.05900
H 	H 	0.86044 0.98704 0.70131 0.04700
H 	H 	0.87114 0.03641 0.82843 0.04100
C 	C 	0.83932 0.07817 0.02868 -0.10400
C 	C 	0.85728 0.04952 0.01730 0.03000
C 	C 	0.82635 0.99415 0.98778 -0.02100
H 	H 	0.84005 0.97216 0.97752 0.04500
C 	C 	0.77833 0.96777 0.96890 -0.08400
C 	C 	0.76072 0.99693 0.98111 0.01400
C 	C 	0.79150 0.05165 0.01042 -0.00900
H 	H 	0.77773 0.07365 0.02040 -0.01500
C 	C 	0.71043 0.97186 0.96367 -0.02900
C 	C 	0.70032 0.98213 0.88592 -0.07700
C 	C 	0.66184 0.98189 0.87594 -0.03300
C 	C 	0.63531 0.97537 0.94426 -0.04900
C 	C 	0.64536 0.96562 0.02180 -0.03000
C 	C 	0.67999 0.95914 0.03035 -0.07000
C 	C 	0.90915 0.07860 0.02691 0.01600
C 	C 	0.92286 0.05454 0.07907 -0.04300
C 	C 	0.96830 0.06962 0.06914 -0.02000
C 	C 	0.98821 0.13623 0.96005 -0.02500
C 	C 	0.94318 0.12207 0.97094 -0.04600
H 	H 	0.97833 0.04996 0.10794 0.03200
H 	H 	0.93394 0.14314 0.93363 0.04400
H 	H 	0.89732 0.02191 0.12401 0.04400
H 	H 	0.72447 0.99465 0.83479 0.03300
H 	H 	0.65434 0.98983 0.81581 0.03000
H 	H 	0.68709 0.95098 0.09078 0.03700
H 	H 	0.62650 0.96334 0.07528 0.03400
H 	H 	0.60725 0.97828 0.93727 0.03800
C 	C 	0.67501 0.72615 0.97951 -0.08200
C 	C 	0.68196 0.68800 0.95690 0.02200
C 	C 	0.70502 0.67635 0.01096 -0.01800
H 	H 	0.71344 0.65025 0.99118 0.01400
C 	C 	0.71940 0.70065 0.08891 -0.08000
C 	C 	0.70381 0.72969 0.11661 0.02200
C 	C 	0.68337 0.74413 0.06087 -0.01700
H 	H 	0.67548 0.77080 0.08020 0.03800
C 	C 	0.70681 0.74298 0.20382 0.02100
C 	C 	0.67483 0.69957 0.26171 -0.04300
C 	C 	0.67935 0.71175 0.34503 -0.02100
C 	C 	0.71542 0.76721 0.37066 -0.03700
C 	C 	0.74683 0.81065 0.31287 -0.01700
C 	C 	0.74250 0.79865 0.22962 -0.04500
C 	C 	0.66277 0.65792 0.87886 0.01100
C 	C 	0.69138 0.68212 0.80695 -0.04000
C 	C 	0.67018 0.66046 0.73064 -0.02800
C 	C 	0.62140 0.61197 0.72614 -0.04200
C 	C 	0.59337 0.58593 0.79796 -0.02600
C 	C 	0.61385 0.60906 0.87422 -0.04800
H 	H 	0.69112 0.68228 0.67502 0.03600
H 	H 	0.60517 0.59503 0.66698 0.02800
H 	H 	0.55551 0.54863 0.79439 0.02900
H 	H 	0.59144 0.59009 0.92937 0.03900
H 	H 	0.72922 0.71970 0.80990 0.04700
H 	H 	0.64707 0.65642 0.24221 0.04000
H 	H 	0.65514 0.67815 0.38977 0.02400
H 	H 	0.76731 0.83238 0.18533 0.04600
H 	H 	0.77494 0.85346 0.33252 0.03500
H 	H 	0.71923 0.77639 0.43526 0.03200
C 	C 	0.79888 0.85023 0.60665 -0.08600
C 	C 	0.81539 0.87131 0.52506 0.02200
C 	C 	0.82647 0.84515 0.47338 -0.02400
H 	H 	0.83930 0.86136 0.41109 0.03600
C 	C 	0.81823 0.79624 0.50013 -0.08200
C 	C 	0.80604 0.77861 0.58366 0.02100
C 	C 	0.80374 0.81163 0.63799 -0.01700
H 	H 	0.79459 0.79831 0.70208 0.03600
C 	C 	0.78631 0.72098 0.61104 0.02000
C 	C 	0.74604 0.67292 0.57163 -0.04400
C 	C 	0.72175 0.61879 0.60631 -0.01700
C 	C 	0.73690 0.61225 0.68073 -0.04000
C 	C 	0.77778 0.65958 0.71889 -0.02100
C 	C 	0.80295 0.71374 0.68357 -0.05200
C 	C 	0.81820 0.91803 0.49096 0.00200
C 	C 	0.86365 0.97044 0.47089 -0.04400
C 	C 	0.86681 0.01139 0.42485 -0.02600
C 	C 	0.82475 0.00143 0.40179 -0.03600
C 	C 	0.77939 0.94945 0.42166 -0.02300
C 	C 	0.77599 0.90745 0.46498 -0.03500
H 	H 	0.90183 0.05013 0.40510 0.03900
H 	H 	0.82734 0.03366 0.36742 0.04900
H 	H 	0.74685 0.94135 0.40237 0.03600
H 	H 	0.74078 0.86642 0.47650 0.01900
H 	H 	0.89647 0.97855 0.48835 0.03800
H 	H 	0.73207 0.67775 0.51664 0.04800
H 	H 	0.69017 0.58207 0.57694 0.03300
H 	H 	0.83423 0.75025 0.71411 0.04100
H 	H 	0.78965 0.65436 0.77637 0.02300
H 	H 	0.71677 0.57050 0.70908 0.03500
