data_crystal

_cell_length_a 19.02219
_cell_length_b 16.43788
_cell_length_c 36.84084
_cell_angle_alpha 88.26163
_cell_angle_beta  88.45328
_cell_angle_gamma 107.43681

_symmetry_space_group_name_	'P 1'
_symmetry_space_group_name_H-M	'P 1'

loop_
_symmetry_equiv_pos_as_xyz
  x,y,z

loop_
_atom_site_label
_atom_site_type_symbol
_atom_site_fract_x
_atom_site_fract_y
_atom_site_fract_z
_atom_site_charge
Zn	Zn	0.56165 0.33374 0.89851 1.22300
Zn	Zn	0.69595 0.51754 0.91546 1.19300
C 	C 	0.75951 0.22952 0.84684 0.30200
Zn	Zn	0.73011 0.37238 0.87885 1.22300
Zn	Zn	0.59746 0.19815 0.85146 1.19700
H 	H 	0.67803 0.36599 0.94249 0.17300
C 	C 	0.72955 0.51773 0.83351 0.30000
O 	O 	0.48827 0.15246 0.85780 -0.45800
O 	O 	0.46326 0.27587 0.87169 -0.39600
O 	O 	0.66717 0.38986 0.91904 -0.78900
O 	O 	0.60196 0.54342 0.92235 -0.45400
O 	O 	0.53605 0.23913 0.93558 -0.44100
O 	O 	0.51474 0.42311 0.90673 -0.42700
O 	O 	0.60888 0.16795 0.90864 -0.41000
O 	O 	0.80358 0.56133 0.90570 -0.46600
H 	H 	0.61490 0.35390 0.83471 0.17900
O 	O 	0.82832 0.43385 0.90642 -0.39800
O 	O 	0.62481 0.32373 0.85675 -0.78700
O 	O 	0.69427 0.17620 0.84048 -0.43400
O 	O 	0.76144 0.45779 0.83850 -0.43900
O 	O 	0.76841 0.27504 0.87594 -0.43800
O 	O 	0.67934 0.52482 0.85741 -0.42000
C 	C 	0.44424 0.20088 0.85711 0.30200
C 	C 	0.53944 0.48378 0.92966 0.28700
C 	C 	0.56128 0.17289 0.93447 0.30200
C 	C 	0.84782 0.51572 0.91289 0.29300
Zn	Zn	0.66877 0.43415 0.56534 1.22400
Zn	Zn	0.51161 0.33071 0.52342 1.20000
C 	C 	0.69925 0.14621 0.59191 0.33200
Zn	Zn	0.59788 0.23427 0.56424 1.22600
Zn	Zn	0.74536 0.32957 0.60964 1.19700
H 	H 	0.64015 0.32763 0.50970 0.17800
C 	C 	0.44928 0.20067 0.59164 0.32400
O 	O 	0.81574 0.44558 0.61015 -0.46700
O 	O 	0.73188 0.51922 0.60359 -0.40100
O 	O 	0.61304 0.33304 0.53238 -0.79600
O 	O 	0.50789 0.40789 0.56260 -0.47200
O 	O 	0.75893 0.45365 0.53462 -0.43900
O 	O 	0.61219 0.51752 0.55722 -0.42300
O 	O 	0.77751 0.32714 0.55237 -0.41400
O 	O 	0.48884 0.23798 0.48972 -0.46100
H 	H 	0.61641 0.34111 0.62112 0.18400
O 	O 	0.53641 0.14856 0.52458 -0.37800
O 	O 	0.64601 0.33508 0.59944 -0.78800
O 	O 	0.72753 0.20405 0.61570 -0.46900
O 	O 	0.51434 0.19422 0.59898 -0.44300
O 	O 	0.66657 0.16484 0.56322 -0.43300
O 	O 	0.43801 0.23435 0.56047 -0.40400
C 	C 	0.79773 0.51645 0.61266 0.30500
C 	C 	0.54036 0.48819 0.55411 0.28100
C 	C 	0.79401 0.39630 0.53076 0.29100
C 	C 	0.49754 0.16245 0.49691 0.30300
Zn	Zn	0.92494 0.92400 0.71473 1.22000
Zn	Zn	0.01676 0.96440 0.79265 1.18700
C 	C 	0.16081 0.08685 0.65612 0.31200
Zn	Zn	0.07127 0.07173 0.72290 1.22500
Zn	Zn	0.00126 0.99903 0.64258 1.18500
H 	H 	0.06210 0.91501 0.73275 0.17500
C 	C 	0.97704 0.12982 0.77300 0.30700
O 	O 	0.90473 0.92094 0.63038 -0.46000
O 	O 	0.83258 0.91783 0.68107 -0.38800
O 	O 	0.02960 0.94992 0.73917 -0.79700
O 	O 	0.92132 0.87779 0.80656 -0.45400
O 	O 	0.93149 0.81679 0.69525 -0.44100
O 	O 	0.85813 0.90151 0.75755 -0.43900
O 	O 	0.03010 0.88449 0.65837 -0.42800
O 	O 	0.10032 0.06050 0.80828 -0.44600
H 	H 	0.94837 0.07445 0.69112 0.17600
O 	O 	0.16599 0.09142 0.75442 -0.40400
O 	O 	0.97878 0.03499 0.69172 -0.77700
O 	O 	0.11089 0.04934 0.63278 -0.43000
O 	O 	0.03493 0.15473 0.75036 -0.43700
O 	O 	0.14232 0.12651 0.68353 -0.44700
O 	O 	0.95153 0.05013 0.78490 -0.40000
C 	C 	0.84292 0.92624 0.64530 0.29200
C 	C 	0.86722 0.85065 0.78417 0.31100
C 	C 	0.97933 0.81403 0.66954 0.32100
C 	C 	0.16376 0.08718 0.78998 0.31400
Zn	Zn	0.32951 0.71137 0.40376 1.22400
Zn	Zn	0.21287 0.52737 0.44173 1.19300
C 	C 	0.12676 0.79454 0.35736 0.29300
Zn	Zn	0.15837 0.64404 0.39223 1.22100
Zn	Zn	0.28018 0.80461 0.34054 1.19700
H 	H 	0.21462 0.67992 0.45252 0.17100
C 	C 	0.16755 0.48659 0.36303 0.30500
O 	O 	0.37614 0.81703 0.31776 -0.47300
O 	O 	0.42571 0.78433 0.37075 -0.38800
O 	O 	0.22750 0.65059 0.43141 -0.78800
O 	O 	0.31466 0.52017 0.44341 -0.45100
O 	O 	0.33372 0.81078 0.43128 -0.45900
O 	O 	0.39464 0.64752 0.42305 -0.42300
O 	O 	0.34115 0.89515 0.38031 -0.40300
O 	O 	0.10430 0.47032 0.44281 -0.45900
H 	H 	0.27348 0.65094 0.34699 0.17300
O 	O 	0.06676 0.58686 0.42824 -0.39900
O 	O 	0.26152 0.69084 0.36397 -0.80100
O 	O 	0.19584 0.84228 0.35757 -0.46600
O 	O 	0.12964 0.54138 0.36352 -0.44500
O 	O 	0.10319 0.72529 0.37874 -0.43300
O 	O 	0.22130 0.49413 0.38543 -0.41700
C 	C 	0.43313 0.81152 0.33617 0.31500
C 	C 	0.37327 0.58536 0.44810 0.28300
C 	C 	0.34615 0.88631 0.41568 0.31700
C 	C 	0.05550 0.51246 0.44541 0.28900
Zn	Zn	0.19530 0.72828 0.05721 1.22400
Zn	Zn	0.32859 0.86419 0.10809 1.20100
C 	C 	0.35555 0.56299 0.03461 0.28900
Zn	Zn	0.36296 0.73052 0.06063 1.22500
Zn	Zn	0.23587 0.60758 0.00363 1.20000
H 	H 	0.27585 0.70506 0.11339 0.18000
C 	C 	0.43058 0.90337 0.03537 0.30800
O 	O 	0.16766 0.63710 0.97173 -0.47200
O 	O 	0.11089 0.69542 0.01582 -0.38800
O 	O 	0.28576 0.74657 0.09249 -0.78600
O 	O 	0.27587 0.92048 0.07516 -0.47500
O 	O 	0.14202 0.62498 0.08618 -0.44400
O 	O 	0.16083 0.82876 0.06763 -0.43700
O 	O 	0.13773 0.53991 0.03797 -0.40000
O 	O 	0.40903 0.85051 0.13780 -0.45600
H 	H 	0.28540 0.76497 0.00621 0.16500
O 	O 	0.44845 0.76287 0.09993 -0.38900
O 	O 	0.27477 0.71861 0.02523 -0.79400
O 	O 	0.28376 0.53829 0.03268 -0.46500
O 	O 	0.42192 0.82357 0.02817 -0.45200
O 	O 	0.38791 0.62260 0.05683 -0.43000
O 	O 	0.41834 0.92436 0.06847 -0.41000
C 	C 	0.11067 0.65945 0.98387 0.30600
C 	C 	0.20415 0.90268 0.07796 0.30200
C 	C 	0.12277 0.54923 0.07235 0.31500
C 	C 	0.46224 0.82293 0.12420 0.30700
Zn	Zn	0.98836 0.14356 0.21074 1.22700
Zn	Zn	0.87094 0.10063 0.28730 1.20300
C 	C 	0.76878 0.95579 0.15685 0.26200
Zn	Zn	0.85553 0.98235 0.22185 1.21800
Zn	Zn	0.92429 0.06844 0.13855 1.19700
H 	H 	0.84514 0.12940 0.22213 0.17500
C 	C 	0.92490 0.93626 0.28340 0.29300
O 	O 	0.02346 0.14268 0.12318 -0.45500
O 	O 	0.08625 0.16614 0.17610 -0.37900
O 	O 	0.87972 0.10301 0.23380 -0.78500
O 	O 	0.97343 0.15268 0.30378 -0.43900
O 	O 	0.97439 0.24949 0.19277 -0.44300
O 	O 	0.04913 0.16250 0.25358 -0.43400
O 	O 	0.90270 0.18999 0.14699 -0.40200
O 	O 	0.76493 0.04465 0.29537 -0.43000
H 	H 	0.98155 0.00203 0.18765 0.18100
O 	O 	0.76245 0.93210 0.25926 -0.39000
O 	O 	0.94661 0.03616 0.18805 -0.79400
O 	O 	0.81277 0.02271 0.13814 -0.42500
O 	O 	0.91115 0.92026 0.24917 -0.44700
O 	O 	0.79270 0.91938 0.18426 -0.44300
O 	O 	0.88781 0.97792 0.30199 -0.40900
C 	C 	0.08197 0.14334 0.14172 0.29100
C 	C 	0.02915 0.19709 0.28238 0.28800
C 	C 	0.95179 0.25593 0.16006 0.31200
C 	C 	0.72869 0.97257 0.28073 0.27400
C 	C 	0.99508 0.32830 0.13569 -0.07600
C 	C 	0.96302 0.36044 0.10649 0.02300
C 	C 	0.00550 0.43256 0.08571 -0.02400
H 	H 	0.98140 0.45657 0.06298 0.04200
C 	C 	0.07842 0.47479 0.09469 -0.07900
C 	C 	0.10972 0.44335 0.12409 0.02300
C 	C 	0.06921 0.36869 0.14328 -0.01900
H 	H 	0.09486 0.34341 0.16504 0.05100
C 	C 	0.18459 0.48914 0.13553 0.01200
C 	C 	0.19427 0.54970 0.16245 -0.05200
C 	C 	0.26499 0.59088 0.17416 -0.03100
C 	C 	0.32622 0.57271 0.15866 -0.04700
C 	C 	0.31670 0.51215 0.13193 -0.02000
C 	C 	0.24601 0.47011 0.12048 -0.04900
C 	C 	0.88544 0.31971 0.09760 0.01600
C 	C 	0.82816 0.33382 0.11886 -0.04300
C 	C 	0.75476 0.28924 0.11247 -0.02300
C 	C 	0.73827 0.23153 0.08454 -0.03600
C 	C 	0.79513 0.21844 0.06288 -0.02300
C 	C 	0.86865 0.26250 0.06931 -0.04700
H 	H 	0.71069 0.29913 0.12927 0.02900
H 	H 	0.68146 0.19708 0.07963 0.03300
H 	H 	0.78226 0.17373 0.04128 0.03100
H 	H 	0.91251 0.25097 0.05286 0.03800
H 	H 	0.84059 0.37809 0.14065 0.03800
H 	H 	0.14713 0.56487 0.17416 0.04000
H 	H 	0.27243 0.63745 0.19497 0.02400
H 	H 	0.23891 0.42278 0.10009 0.05500
H 	H 	0.36409 0.49775 0.12009 0.04100
H 	H 	0.38102 0.60557 0.16735 0.03900
C 	C 	0.53816 0.85662 0.13716 -0.07800
C 	C 	0.57192 0.94561 0.13997 0.00900
C 	C 	0.64824 0.97730 0.14405 -0.06200
H 	H 	0.67403 0.04544 0.14578 0.06200
C 	C 	0.69107 0.92169 0.14716 -0.06500
C 	C 	0.65786 0.83308 0.14408 0.01600
C 	C 	0.58144 0.80110 0.14020 -0.01700
H 	H 	0.55616 0.73307 0.13766 0.04500
C 	C 	0.70334 0.77420 0.14169 0.02000
C 	C 	0.75627 0.78475 0.11316 -0.05200
C 	C 	0.79806 0.72805 0.11050 -0.02700
C 	C 	0.78609 0.65956 0.13571 -0.04000
C 	C 	0.73244 0.64774 0.16368 -0.02100
C 	C 	0.69180 0.70551 0.16705 -0.04600
C 	C 	0.52838 0.00642 0.13845 0.02800
C 	C 	0.53362 0.05994 0.10744 -0.04400
C 	C 	0.49293 0.11803 0.10614 -0.02200
C 	C 	0.44785 0.12382 0.13595 -0.03800
C 	C 	0.44422 0.07244 0.16732 -0.04000
C 	C 	0.48504 0.01451 0.16879 -0.01500
H 	H 	0.49632 0.15852 0.08204 0.03200
H 	H 	0.41598 0.16839 0.13480 0.03600
H 	H 	0.40973 0.07745 0.19048 0.04000
H 	H 	0.48209 0.97499 0.19320 0.02000
H 	H 	0.56854 0.05586 0.08430 0.05100
H 	H 	0.76489 0.83672 0.09310 0.03000
H 	H 	0.83927 0.73678 0.08870 0.02400
H 	H 	0.65096 0.69649 0.18908 0.04400
H 	H 	0.72181 0.59329 0.18250 0.02900
H 	H 	0.81798 0.61524 0.13340 0.03300
C 	C 	0.13001 0.09509 0.12777 -0.09500
C 	C 	0.15263 0.10374 0.09060 0.01400
C 	C 	0.17254 0.03773 0.07411 0.01500
H 	H 	0.18993 0.04449 0.04560 0.03600
C 	C 	0.17248 0.96439 0.09446 -0.12100
C 	C 	0.15565 0.95877 0.13214 -0.01500
C 	C 	0.13581 0.02474 0.14865 0.00400
H 	H 	0.12022 0.01858 0.17738 0.02900
C 	C 	0.15816 0.88368 0.15449 0.00100
C 	C 	0.09413 0.81446 0.16078 -0.05400
C 	C 	0.09607 0.74455 0.18289 -0.02700
C 	C 	0.16165 0.74375 0.19893 -0.04600
C 	C 	0.22586 0.81198 0.19224 -0.04600
C 	C 	0.22417 0.88207 0.17018 -0.09400
C 	C 	0.16002 0.18370 0.06931 0.01600
C 	C 	0.10041 0.19370 0.04988 -0.03700
C 	C 	0.10875 0.26786 0.02841 -0.02600
C 	C 	0.17738 0.33027 0.02481 -0.02500
C 	C 	0.23761 0.31893 0.04294 -0.02600
C 	C 	0.22875 0.24661 0.06568 -0.04500
H 	H 	0.06230 0.27638 0.01413 0.03200
H 	H 	0.18403 0.38702 0.00775 0.02700
H 	H 	0.29095 0.36667 0.03977 0.04100
H 	H 	0.27550 0.23871 0.07994 0.04300
H 	H 	0.04794 0.14394 0.05126 0.03500
H 	H 	0.04298 0.81509 0.14869 0.03300
H 	H 	0.04667 0.69117 0.18773 0.02900
H 	H 	0.27396 0.93502 0.16529 -0.00400
H 	H 	0.27680 0.81076 0.20430 0.01600
H 	H 	0.16270 0.69033 0.21658 0.02400
C 	C 	0.65219 0.92980 0.29302 -0.06000
C 	C 	0.59776 0.97151 0.28953 -0.02300
C 	C 	0.52585 0.93110 0.30295 -0.00100
H 	H 	0.48428 0.96384 0.30079 0.02700
C 	C 	0.50759 0.84940 0.31985 -0.08900
C 	C 	0.56157 0.80638 0.32227 0.02800
C 	C 	0.63348 0.84689 0.30865 -0.02800
H 	H 	0.67525 0.81442 0.31076 0.04700
C 	C 	0.54373 0.71970 0.33961 0.01400
C 	C 	0.49131 0.65064 0.32467 -0.04700
C 	C 	0.47239 0.56974 0.34206 -0.02300
C 	C 	0.50714 0.55691 0.37375 -0.03000
C 	C 	0.56082 0.62492 0.38813 -0.01800
C 	C 	0.57864 0.70634 0.37137 -0.04100
C 	C 	0.61537 0.05680 0.27113 0.05500
C 	C 	0.62373 0.12950 0.29160 -0.06400
C 	C 	0.64440 0.21054 0.27429 -0.01700
C 	C 	0.65621 0.21921 0.23654 -0.05000
C 	C 	0.64711 0.14685 0.21603 -0.01500
C 	C 	0.62690 0.06574 0.23325 -0.06900
H 	H 	0.65154 0.26664 0.29013 0.02700
H 	H 	0.67248 0.28199 0.22321 0.03500
H 	H 	0.65583 0.15369 0.18681 0.03000
H 	H 	0.62088 0.00998 0.21733 0.06000
H 	H 	0.61525 0.12325 0.32088 0.05200
H 	H 	0.46464 0.65995 0.29994 0.03800
H 	H 	0.43091 0.51698 0.33093 0.03100
H 	H 	0.61930 0.75903 0.38308 0.04100
H 	H 	0.58869 0.61456 0.41223 0.03000
H 	H 	0.49263 0.49424 0.38711 0.03300
C 	C 	0.07980 0.27519 0.29607 -0.07800
C 	C 	0.07026 0.35568 0.28764 0.01400
C 	C 	0.10946 0.42699 0.30634 -0.01500
H 	H 	0.10287 0.48883 0.29937 0.03700
C 	C 	0.14988 0.41764 0.33660 -0.08200
C 	C 	0.16228 0.33790 0.34400 0.02000
C 	C 	0.12870 0.26805 0.32293 -0.01400
H 	H 	0.13660 0.20652 0.32920 0.04400
C 	C 	0.20707 0.32549 0.37459 0.02000
C 	C 	0.28372 0.34355 0.36964 -0.04400
C 	C 	0.32638 0.33510 0.39904 -0.01900
C 	C 	0.29271 0.30844 0.43337 -0.03700
C 	C 	0.21634 0.29013 0.43836 -0.03300
C 	C 	0.17340 0.29790 0.40900 -0.05500
C 	C 	0.01448 0.36527 0.26185 0.00300
C 	C 	0.93891 0.33007 0.27102 -0.05400
C 	C 	0.88631 0.35030 0.24967 -0.02900
C 	C 	0.90873 0.40816 0.21996 -0.03300
C 	C 	0.98374 0.44449 0.21104 -0.01100
C 	C 	0.03653 0.42235 0.23159 -0.04500
H 	H 	0.82819 0.32258 0.25665 0.02100
H 	H 	0.86798 0.42538 0.20405 0.03200
H 	H 	0.00100 0.48951 0.18809 0.03000
H 	H 	0.09456 0.45114 0.22463 0.04000
H 	H 	0.92109 0.28940 0.29528 0.00500
H 	H 	0.31017 0.36489 0.34318 0.04200
H 	H 	0.38546 0.34905 0.39521 0.02800
H 	H 	0.11427 0.28380 0.41306 0.04700
H 	H 	0.19037 0.26929 0.46493 0.02600
H 	H 	0.32572 0.30135 0.45604 0.02700
C 	C 	0.97514 0.89850 0.30260 -0.06000
C 	C 	0.96624 0.81008 0.30227 0.02000
C 	C 	0.01631 0.77691 0.32032 -0.02400
H 	H 	0.01126 0.70957 0.31898 0.03400
C 	C 	0.07190 0.82987 0.34070 -0.09300
C 	C 	0.07585 0.91663 0.34391 0.04100
C 	C 	0.02946 0.95088 0.32367 -0.07500
H 	H 	0.03408 0.01807 0.32526 0.07800
C 	C 	0.12364 0.97018 0.37058 -0.00200
C 	C 	0.10967 0.95087 0.40798 -0.08800
C 	C 	0.15267 0.00395 0.43317 0.05900
C 	C 	0.20894 0.07692 0.42119 -0.05900
C 	C 	0.22313 0.09634 0.38400 -0.01300
C 	C 	0.18069 0.04317 0.35869 -0.01900
C 	C 	0.90103 0.75083 0.28623 0.02100
C 	C 	0.90967 0.70456 0.25589 -0.04700
C 	C 	0.84836 0.64492 0.24210 -0.02000
C 	C 	0.77835 0.63147 0.25845 -0.03700
C 	C 	0.76933 0.67839 0.28829 -0.01900
C 	C 	0.83050 0.73758 0.30235 -0.04200
H 	H 	0.85518 0.60869 0.21892 0.02900
H 	H 	0.73115 0.58425 0.24818 0.03400
H 	H 	0.71504 0.66821 0.30078 0.03300
H 	H 	0.82327 0.77270 0.32586 0.04900
H 	H 	0.96381 0.71429 0.24327 0.04000
H 	H 	0.06533 0.89516 0.41747 0.05500
H 	H 	0.14207 0.98884 0.46198 -0.00900
H 	H 	0.19173 0.05886 0.32991 0.04100
H 	H 	0.26713 0.15248 0.37479 0.03300
H 	H 	0.24145 0.11847 0.44073 0.04500
C 	C 	0.46796 0.98433 0.44344 -0.02300
H 	H 	0.50562 0.94946 0.43304 0.03700
C 	C 	0.45089 0.99557 0.48396 -0.02500
H 	H 	0.47535 0.97133 0.50740 0.03700
C 	C 	0.47567 0.07942 0.43471 0.00300
H 	H 	0.52071 0.12425 0.41773 0.03100
C 	C 	0.45811 0.08963 0.47494 -0.05400
C 	C 	0.38515 0.96167 0.43636 -0.08600
C 	C 	0.39228 0.05569 0.42731 0.00700
H 	H 	0.36819 0.07976 0.40373 0.03700
C 	C 	0.37532 0.06703 0.46791 0.00200
H 	H 	0.33808 0.10197 0.47868 0.03300
C 	C 	0.36764 0.97203 0.47663 -0.02500
H 	H 	0.32256 0.92739 0.49366 0.03000
C 	C 	0.90456 0.36172 0.49112 -0.01400
H 	H 	0.88760 0.29104 0.49428 0.03800
C 	C 	0.97792 0.42354 0.50379 -0.00900
H 	H 	0.02261 0.40425 0.51694 0.01700
C 	C 	0.91389 0.41413 0.45455 -0.00900
H 	H 	0.90596 0.38716 0.42717 0.03400
C 	C 	0.98598 0.47534 0.46762 -0.06900
C 	C 	0.86280 0.41962 0.50751 -0.06500
C 	C 	0.87107 0.47138 0.47134 -0.01100
H 	H 	0.82654 0.49101 0.45818 0.03100
C 	C 	0.94386 0.53272 0.48414 -0.01000
H 	H 	0.96042 0.60342 0.48109 0.03500
C 	C 	0.93503 0.48074 0.52047 -0.01800
H 	H 	0.94308 0.50804 0.54781 0.03500
C 	C 	0.42495 0.47807 0.51688 -0.03500
H 	H 	0.39009 0.41723 0.53016 0.01200
C 	C 	0.44777 0.49029 0.47626 -0.03000
H 	H 	0.43332 0.43998 0.45596 0.01900
C 	C 	0.40431 0.56163 0.51579 -0.01600
H 	H 	0.35313 0.56990 0.52816 0.01000
C 	C 	0.42676 0.57350 0.47510 -0.06500
C 	C 	0.50438 0.52854 0.52618 -0.09600
C 	C 	0.48402 0.61232 0.52530 -0.00500
H 	H 	0.49936 0.66231 0.54573 0.02700
C 	C 	0.50599 0.62521 0.48398 -0.00800
H 	H 	0.53894 0.68603 0.47003 0.03300
C 	C 	0.52725 0.54088 0.48553 -0.03000
H 	H 	0.57839 0.53206 0.47338 0.00800
C 	C 	0.71585 0.06499 0.59449 -0.09900
C 	C 	0.68241 0.00468 0.62256 0.09400
C 	C 	0.72110 0.95166 0.63719 -0.06200
H 	H 	0.69809 0.90987 0.66061 0.05400
C 	C 	0.79125 0.95609 0.62264 -0.11000
C 	C 	0.81586 0.00272 0.58911 0.07000
C 	C 	0.77841 0.05799 0.57573 -0.02200
H 	H 	0.80105 0.10002 0.55223 0.04800
C 	C 	0.88028 0.99438 0.56791 -0.05100
C 	C 	0.94949 0.05572 0.57019 -0.04500
C 	C 	0.01170 0.04333 0.55295 -0.02400
C 	C 	0.00482 0.97073 0.53283 -0.07400
C 	C 	0.93555 0.91104 0.52946 -0.02100
C 	C 	0.87323 0.92314 0.54669 -0.02800
C 	C 	0.60569 0.99388 0.63520 -0.06500
C 	C 	0.59016 0.05084 0.65952 -0.00700
C 	C 	0.51700 0.04463 0.66907 0.00100
C 	C 	0.45924 0.98114 0.65473 -0.06500
C 	C 	0.47447 0.92385 0.63070 -0.02800
C 	C 	0.54753 0.93001 0.62096 -0.02700
H 	H 	0.50507 0.08921 0.68748 0.02900
H 	H 	0.40267 0.97644 0.66216 0.03500
H 	H 	0.42967 0.87500 0.61947 0.02900
H 	H 	0.55893 0.88608 0.60197 0.03200
H 	H 	0.63462 0.10080 0.67037 0.03300
H 	H 	0.95540 0.11122 0.58634 0.00400
H 	H 	0.06534 0.08954 0.55548 0.02600
H 	H 	0.81975 0.87708 0.54380 0.04000
H 	H 	0.93022 0.85519 0.51366 0.03200
H 	H 	0.05311 0.96082 0.51981 0.03400
C 	C 	0.38580 0.16080 0.61634 -0.07600
C 	C 	0.36286 0.21050 0.64187 0.01900
C 	C 	0.29004 0.18420 0.65591 -0.01300
H 	H 	0.27175 0.22484 0.67420 0.04900
C 	C 	0.24012 0.10744 0.64525 -0.08600
C 	C 	0.26631 0.05244 0.62345 0.05800
C 	C 	0.33863 0.08026 0.60862 -0.02500
H 	H 	0.35738 0.04038 0.59009 0.05300
C 	C 	0.22033 0.96422 0.61782 -0.02500
C 	C 	0.18394 0.94362 0.58515 -0.03200
C 	C 	0.14103 0.85973 0.57983 -0.03500
C 	C 	0.13567 0.79596 0.60669 -0.02700
C 	C 	0.17240 0.81618 0.63912 -0.02800
C 	C 	0.21441 0.90017 0.64479 -0.03400
C 	C 	0.41405 0.29231 0.65267 0.01200
C 	C 	0.40541 0.36987 0.63980 -0.04400
C 	C 	0.45691 0.44710 0.64799 -0.01600
C 	C 	0.51712 0.44716 0.66896 -0.04300
C 	C 	0.52575 0.37003 0.68191 -0.03100
C 	C 	0.47413 0.29271 0.67402 -0.04900
H 	H 	0.45066 0.50683 0.63770 0.03300
H 	H 	0.55729 0.50694 0.67501 0.03600
H 	H 	0.57302 0.37010 0.69759 0.02000
H 	H 	0.48150 0.23319 0.68386 0.04000
H 	H 	0.35975 0.37019 0.62290 0.04300
H 	H 	0.18826 0.99267 0.56416 0.02700
H 	H 	0.11209 0.84412 0.55487 0.02800
H 	H 	0.24258 0.91544 0.67002 0.02600
H 	H 	0.16826 0.76687 0.65988 0.03400
H 	H 	0.10271 0.73100 0.60246 0.03200
C 	C 	0.85368 0.59401 0.62415 -0.08000
C 	C 	0.86843 0.67258 0.60420 0.02600
C 	C 	0.92556 0.74324 0.61451 -0.01600
H 	H 	0.93752 0.80316 0.59903 0.04400
C 	C 	0.96185 0.73909 0.64683 -0.08400
C 	C 	0.95562 0.65830 0.66292 0.02800
C 	C 	0.89966 0.58673 0.65247 -0.01900
H 	H 	0.89245 0.52521 0.66614 0.03300
C 	C 	0.01124 0.64680 0.68818 0.00700
C 	C 	0.06072 0.60288 0.67732 -0.05200
C 	C 	0.11015 0.58693 0.70196 -0.02500
C 	C 	0.11010 0.61427 0.73753 -0.04100
C 	C 	0.06075 0.65771 0.74846 -0.02200
C 	C 	0.01136 0.67378 0.72390 -0.05800
C 	C 	0.82355 0.68203 0.57321 0.01700
C 	C 	0.76016 0.70766 0.57887 -0.03900
C 	C 	0.71479 0.71064 0.54992 -0.01500
C 	C 	0.73310 0.68932 0.51521 -0.03800
C 	C 	0.79711 0.66559 0.50934 -0.02100
C 	C 	0.84248 0.66229 0.53824 -0.04500
H 	H 	0.66533 0.72919 0.55441 0.03600
H 	H 	0.69764 0.69102 0.49289 0.03500
H 	H 	0.81131 0.64923 0.48245 0.03300
H 	H 	0.89179 0.64361 0.53360 0.04300
H 	H 	0.74558 0.72397 0.60574 0.05200
H 	H 	0.06078 0.58112 0.64985 0.03600
H 	H 	0.14826 0.55309 0.69354 0.02800
H 	H 	0.97230 0.70549 0.73274 0.04900
H 	H 	0.05963 0.67727 0.77619 0.02300
H 	H 	0.14788 0.60120 0.75668 0.03300
C 	C 	0.99107 0.53346 0.97173 -0.00300
H 	H 	0.00163 0.48631 0.99140 0.03100
C 	C 	0.98575 0.52373 0.93019 -0.00700
H 	H 	0.99086 0.46800 0.91524 0.03600
C 	C 	0.92228 0.56516 0.97260 -0.01700
H 	H 	0.87503 0.54306 0.99256 0.01900
C 	C 	0.91783 0.55579 0.93125 -0.07500
C 	C 	0.03999 0.62628 0.96514 -0.07500
C 	C 	0.97215 0.65853 0.96624 -0.00800
H 	H 	0.96719 0.71427 0.98122 0.03000
C 	C 	0.96659 0.64868 0.92458 -0.01100
H 	H 	0.95597 0.69561 0.90482 0.03000
C 	C 	0.03546 0.61691 0.92376 -0.01900
H 	H 	0.08269 0.63863 0.90378 0.03100
C 	C 	0.44709 0.05387 0.96486 0.01500
H 	H 	0.40427 0.06933 0.94848 0.03500
C 	C 	0.45193 0.05866 0.00657 0.00600
H 	H 	0.41242 0.07685 0.02498 0.03900
C 	C 	0.46294 0.96686 0.96649 -0.05800
H 	H 	0.43266 0.90945 0.95190 0.03200
C 	C 	0.46818 0.97240 0.00795 -0.09900
C 	C 	0.53046 0.09956 0.96100 -0.08300
C 	C 	0.54688 0.01339 0.96223 0.04800
H 	H 	0.58637 0.99540 0.94376 0.00200
C 	C 	0.55156 0.01786 0.00416 0.00000
H 	H 	0.59424 0.00222 0.02056 0.03800
C 	C 	0.53564 0.10502 0.00245 -0.01300
H 	H 	0.56588 0.16238 0.01708 0.02700
C 	C 	0.37337 0.48334 0.97350 -0.01600
H 	H 	0.31466 0.45414 0.96711 0.01200
C 	C 	0.42964 0.43386 0.98095 -0.01500
H 	H 	0.41821 0.36365 0.97996 0.03100
C 	C 	0.43193 0.54976 0.94903 -0.01600
H 	H 	0.42249 0.57475 0.92185 0.02600
C 	C 	0.48734 0.50073 0.95691 -0.07200
C 	C 	0.40102 0.53738 0.00652 -0.10100
C 	C 	0.45871 0.60394 0.98240 -0.01700
H 	H 	0.47026 0.67419 0.98332 0.02000
C 	C 	0.51460 0.55464 0.99000 -0.01100
H 	H 	0.57319 0.58398 0.99659 0.02000
C 	C 	0.45631 0.48826 0.01439 -0.00800
H 	H 	0.46569 0.46324 0.04158 0.02800
C 	C 	0.82488 0.22779 0.82441 -0.07800
C 	C 	0.81964 0.21441 0.78668 0.02100
C 	C 	0.87770 0.19661 0.76746 -0.01600
H 	H 	0.87133 0.17939 0.73928 0.02800
C 	C 	0.93996 0.19075 0.78563 -0.08000
C 	C 	0.95023 0.21866 0.82147 0.02600
C 	C 	0.89236 0.23651 0.84082 -0.01700
H 	H 	0.89872 0.25298 0.86907 0.05000
C 	C 	0.01920 0.22206 0.83983 0.01200
C 	C 	0.08628 0.28047 0.82728 -0.04200
C 	C 	0.15183 0.28149 0.84378 -0.01800
C 	C 	0.15095 0.22354 0.87249 -0.03500
C 	C 	0.08436 0.16492 0.88497 -0.01500
C 	C 	0.01850 0.16414 0.86877 -0.05100
C 	C 	0.75203 0.21432 0.76773 0.01100
C 	C 	0.70312 0.13686 0.75738 -0.05300
C 	C 	0.63247 0.13365 0.74659 -0.03200
C 	C 	0.61158 0.20820 0.74439 -0.06300
C 	C 	0.66097 0.28598 0.75347 -0.04400
C 	C 	0.73092 0.28915 0.76525 -0.07000
H 	H 	0.59354 0.07317 0.74048 0.03300
H 	H 	0.55680 0.20549 0.73615 0.02800
H 	H 	0.64437 0.34342 0.75234 0.02000
H 	H 	0.76695 0.34850 0.77441 0.04300
H 	H 	0.71852 0.07862 0.75948 0.05500
H 	H 	0.08772 0.32426 0.80453 0.04200
H 	H 	0.20340 0.32661 0.83405 0.03000
H 	H 	0.96723 0.11786 0.87828 0.04800
H 	H 	0.08383 0.11972 0.90704 0.03100
H 	H 	0.20196 0.22355 0.88483 0.04100
C 	C 	0.37258 0.17135 0.83968 -0.07700
C 	C 	0.34928 0.22727 0.81624 0.01600
C 	C 	0.27985 0.19962 0.80116 -0.01000
H 	H 	0.26248 0.24228 0.78286 0.04100
C 	C 	0.23280 0.11725 0.80930 -0.08900
C 	C 	0.25568 0.06131 0.83275 0.05000
C 	C 	0.32550 0.08866 0.84779 -0.02700
H 	H 	0.34298 0.04576 0.86589 0.05100
C 	C 	0.20870 0.97249 0.83985 -0.02200
C 	C 	0.15579 0.95273 0.86865 -0.09100
C 	C 	0.10673 0.87019 0.87324 -0.03100
C 	C 	0.11070 0.80717 0.84928 -0.05800
C 	C 	0.16445 0.82619 0.82106 -0.03900
C 	C 	0.21325 0.90871 0.81623 -0.05900
C 	C 	0.39672 0.31551 0.80789 0.01700
C 	C 	0.45741 0.33108 0.78329 -0.05500
C 	C 	0.50466 0.41414 0.77719 -0.02700
C 	C 	0.49094 0.48186 0.79514 -0.03800
C 	C 	0.43049 0.46661 0.81959 -0.01800
C 	C 	0.38336 0.38368 0.82597 -0.04100
H 	H 	0.55208 0.42604 0.75870 0.02600
H 	H 	0.52704 0.54617 0.79007 0.03700
H 	H 	0.42044 0.51899 0.83378 0.03300
H 	H 	0.33764 0.37205 0.84558 0.04400
H 	H 	0.46845 0.27884 0.76936 0.03200
H 	H 	0.15170 0.00164 0.88693 0.06700
H 	H 	0.06535 0.85525 0.89519 0.02000
H 	H 	0.25378 0.92346 0.79386 0.02900
H 	H 	0.16820 0.77711 0.80287 0.02500
H 	H 	0.07204 0.74370 0.85252 0.03000
C 	C 	0.82962 0.75849 0.78396 -0.10100
C 	C 	0.75201 0.72574 0.78424 0.03100
C 	C 	0.71776 0.64031 0.79562 -0.02600
H 	H 	0.65823 0.61680 0.79887 0.04200
C 	C 	0.76056 0.58759 0.80596 -0.07700
C 	C 	0.83722 0.61620 0.79785 0.01900
C 	C 	0.87157 0.70253 0.78947 -0.01000
H 	H 	0.93122 0.72711 0.78900 0.02000
C 	C 	0.88132 0.55616 0.79627 0.02500
C 	C 	0.93070 0.55400 0.82366 -0.04800
C 	C 	0.97358 0.49837 0.82163 -0.01300
C 	C 	0.96865 0.44635 0.79188 -0.03400
C 	C 	0.92091 0.44990 0.76411 -0.01900
C 	C 	0.87736 0.50478 0.76620 -0.04800
C 	C 	0.70635 0.77963 0.77260 0.01300
C 	C 	0.67430 0.76902 0.73852 -0.04200
C 	C 	0.62947 0.81843 0.72783 -0.02000
C 	C 	0.61749 0.87949 0.75080 -0.04000
C 	C 	0.64935 0.89034 0.78479 -0.02400
C 	C 	0.69317 0.84000 0.79588 -0.03900
H 	H 	0.60383 0.80921 0.70178 0.03100
H 	H 	0.58309 0.91792 0.74238 0.02600
H 	H 	0.63988 0.93752 0.80257 0.02300
H 	H 	0.71712 0.84814 0.82237 0.04200
H 	H 	0.68384 0.72230 0.72045 0.04400
H 	H 	0.93616 0.59576 0.84625 0.04700
H 	H 	0.01124 0.49629 0.84289 0.02700
H 	H 	0.84083 0.50767 0.74446 0.04000
H 	H 	0.91760 0.41006 0.74097 0.02900
H 	H 	0.00234 0.40399 0.79015 0.03500
