data_crystal

_cell_length_a 18.25331
_cell_length_b 16.71566
_cell_length_c 40.11957
_cell_angle_alpha 90.49237
_cell_angle_beta  91.08871
_cell_angle_gamma 111.02376

_symmetry_space_group_name_	'P 1'
_symmetry_space_group_name_H-M	'P 1'

loop_
_symmetry_equiv_pos_as_xyz
  x,y,z

loop_
_atom_site_label
_atom_site_type_symbol
_atom_site_fract_x
_atom_site_fract_y
_atom_site_fract_z
_atom_site_charge
Ni	Ni	0.75086 0.37640 0.88600 1.10500
O 	O 	0.65389 0.33366 0.85482 -0.70100
Ni	Ni	0.57039 0.33474 0.88593 1.10100
O 	O 	0.81765 0.32617 0.85862 -0.37200
O 	O 	0.71761 0.19779 0.85668 -0.41500
O 	O 	0.79662 0.48615 0.85877 -0.37100
Ni	Ni	0.62120 0.21766 0.83584 1.06900
O 	O 	0.81514 0.54883 0.92682 -0.41100
O 	O 	0.54520 0.13743 0.86913 -0.39800
O 	O 	0.46982 0.26340 0.85928 -0.37500
O 	O 	0.66990 0.39581 0.91410 -0.70100
O 	O 	0.84242 0.42662 0.91846 -0.37200
O 	O 	0.50289 0.36243 0.92093 -0.36800
O 	O 	0.57829 0.50484 0.91987 -0.41400
Ni	Ni	0.69615 0.51772 0.92138 1.06700
H 	H 	0.65743 0.37498 0.83684 0.15600
H 	H 	0.66871 0.36804 0.93589 0.16000
C 	C 	0.54314 0.15379 0.90113 0.31300
O 	O 	0.70435 0.54348 0.87198 -0.42000
C 	C 	0.78854 0.24642 0.84799 0.27500
C 	C 	0.46657 0.23611 0.82789 0.29300
C 	C 	0.76698 0.54679 0.85567 0.29300
C 	C 	0.52380 0.43998 0.93394 0.27800
C 	C 	0.85005 0.49533 0.93668 0.27800
O 	O 	0.56872 0.23203 0.91292 -0.40300
O 	O 	0.52970 0.23585 0.81231 -0.42500
Ni	Ni	0.51708 0.37286 0.54947 1.09900
O 	O 	0.62100 0.40018 0.52553 -0.69800
Ni	Ni	0.68001 0.34972 0.55631 1.10100
O 	O 	0.47595 0.43087 0.51242 -0.37400
O 	O 	0.58096 0.55456 0.52126 -0.40800
O 	O 	0.48403 0.26185 0.52171 -0.40000
Ni	Ni	0.68011 0.52148 0.52072 1.07300
O 	O 	0.44653 0.28473 0.61852 -0.41700
O 	O 	0.68850 0.54114 0.57071 -0.41400
O 	O 	0.77320 0.36793 0.52636 -0.37300
O 	O 	0.58331 0.34018 0.58361 -0.69700
O 	O 	0.40833 0.33640 0.57127 -0.37800
O 	O 	0.71579 0.26972 0.58579 -0.36700
O 	O 	0.59256 0.16990 0.58261 -0.41900
Ni	Ni	0.51926 0.22856 0.60100 1.07100
H 	H 	0.61345 0.37123 0.50341 0.15400
H 	H 	0.59780 0.38336 0.60196 0.15800
C 	C 	0.74570 0.52835 0.58686 0.29300
O 	O 	0.43573 0.16991 0.56468 -0.39800
C 	C 	0.51676 0.51040 0.50431 0.27400
C 	C 	0.79944 0.44041 0.50991 0.27700
C 	C 	0.44208 0.18554 0.53259 0.30300
C 	C 	0.66545 0.19409 0.59375 0.26900
C 	C 	0.39054 0.29243 0.59920 0.29100
O 	O 	0.75126 0.45185 0.58588 -0.36300
O 	O 	0.78732 0.50881 0.52129 -0.40500
Ni	Ni	0.95010 0.00190 0.66626 1.10400
O 	O 	0.05051 0.04292 0.69530 -0.70700
Ni	Ni	0.00998 0.98832 0.73834 1.09100
O 	O 	0.01218 0.06373 0.62568 -0.37200
O 	O 	0.05323 0.18683 0.65602 -0.41600
O 	O 	0.97120 0.89175 0.65512 -0.38200
Ni	Ni	0.09038 0.16652 0.70351 1.06800
O 	O 	0.75586 0.90748 0.68183 -0.39500
O 	O 	0.98866 0.17096 0.72295 -0.40500
O 	O 	0.11614 0.02286 0.76257 -0.36900
O 	O 	0.90751 0.96746 0.71168 -0.69600
O 	O 	0.84589 0.95564 0.64014 -0.37400
O 	O 	0.95757 0.90172 0.77475 -0.36600
O 	O 	0.89251 0.80205 0.73488 -0.40600
Ni	Ni	0.82335 0.85579 0.70870 1.08100
H 	H 	0.09101 0.02163 0.68701 0.16600
H 	H 	0.88230 0.00803 0.71858 0.15300
C 	C 	0.96563 0.13961 0.75252 0.29200
O 	O 	0.84483 0.80716 0.66507 -0.39100
C 	C 	0.06373 0.14196 0.63068 0.28100
C 	C 	0.16417 0.10419 0.76081 0.26900
C 	C 	0.91485 0.81563 0.65490 0.30000
C 	C 	0.91109 0.82324 0.76635 0.27300
C 	C 	0.78031 0.95242 0.65443 0.27800
O 	O 	0.99138 0.08297 0.76564 -0.36600
O 	O 	0.13722 0.16374 0.75007 -0.40500
Ni	Ni	0.14797 0.73625 0.38166 1.10000
O 	O 	0.24027 0.81374 0.35501 -0.70900
Ni	Ni	0.33044 0.81075 0.38274 1.10200
O 	O 	0.07019 0.75655 0.34836 -0.36900
O 	O 	0.12720 0.90144 0.35758 -0.41400
O 	O 	0.15411 0.63450 0.35372 -0.38800
Ni	Ni	0.24816 0.93238 0.35371 1.06200
O 	O 	0.12905 0.64396 0.45421 -0.41600
O 	O 	0.25093 0.94822 0.40432 -0.41100
O 	O 	0.41548 0.87868 0.35137 -0.38200
O 	O 	0.23835 0.75024 0.41298 -0.69900
O 	O 	0.05645 0.65176 0.40720 -0.37400
O 	O 	0.40888 0.77007 0.40822 -0.37500
O 	O 	0.31923 0.63552 0.40422 -0.41900
Ni	Ni	0.22559 0.63904 0.43159 1.07300
H 	H 	0.24156 0.79069 0.33230 0.15500
H 	H 	0.23621 0.78864 0.43152 0.15500
C 	C 	0.31394 0.95673 0.42231 0.27800
O 	O 	0.14895 0.55324 0.39949 -0.39900
C 	C 	0.07201 0.83507 0.34304 0.25300
C 	C 	0.42020 0.95606 0.34179 0.26900
C 	C 	0.14899 0.56081 0.36712 0.30100
C 	C 	0.38993 0.68752 0.41290 0.27800
C 	C 	0.06090 0.62460 0.43793 0.27800
O 	O 	0.36219 0.91851 0.41318 -0.37100
O 	O 	0.36878 0.99049 0.35201 -0.40900
Ni	Ni	0.31794 0.82207 0.06098 1.09900
O 	O 	0.25507 0.72339 0.09128 -0.69800
Ni	Ni	0.25920 0.62143 0.06613 1.10100
O 	O 	0.29890 0.91094 0.09220 -0.36700
O 	O 	0.16686 0.83753 0.08813 -0.40700
O 	O 	0.41467 0.82735 0.08943 -0.38900
Ni	Ni	0.14482 0.70815 0.09489 1.07300
O 	O 	0.39545 0.82831 0.98793 -0.40900
O 	O 	0.12647 0.69740 0.04477 -0.41500
O 	O 	0.20440 0.53192 0.10019 -0.38300
O 	O 	0.30775 0.71811 0.03326 -0.69700
O 	O 	0.38749 0.91851 0.03074 -0.37400
O 	O 	0.29556 0.53380 0.04198 -0.37400
O 	O 	0.41837 0.63302 0.04211 -0.42200
Ni	Ni	0.40968 0.73353 0.01476 1.07800
H 	H 	0.28008 0.72747 0.11365 0.16100
H 	H 	0.27047 0.71406 0.01453 0.16300
C 	C 	0.11599 0.62579 0.02869 0.28700
O 	O 	0.48917 0.82462 0.04461 -0.39800
C 	C 	0.22728 0.89714 0.10253 0.28000
C 	C 	0.13730 0.52988 0.11273 0.27100
C 	C 	0.48253 0.83379 0.07674 0.29800
C 	C 	0.36984 0.55538 0.03459 0.27900
C 	C 	0.41050 0.90585 0.00046 0.28600
O 	O 	0.15684 0.57805 0.03735 -0.37200
O 	O 	0.09947 0.57748 0.09992 -0.40400
Ni	Ni	0.90329 0.03910 0.19827 1.09700
O 	O 	0.81519 0.06489 0.22118 -0.70800
Ni	Ni	0.86626 0.11346 0.26461 1.10200
O 	O 	0.83051 0.99316 0.15701 -0.36900
O 	O 	0.74139 0.89580 0.18932 -0.41400
O 	O 	0.94725 0.16050 0.17699 -0.37200
Ni	Ni	0.72806 0.95961 0.23204 1.06200
O 	O 	0.08440 0.12814 0.19539 -0.41400
O 	O 	0.79417 0.90307 0.25825 -0.41200
O 	O 	0.77478 0.14408 0.28159 -0.37000
O 	O 	0.95004 0.06970 0.24503 -0.68600
O 	O 	0.98879 0.00527 0.17697 -0.37300
O 	O 	0.93310 0.18988 0.30274 -0.35100
O 	O 	0.05552 0.19493 0.29079 -0.40700
Ni	Ni	0.05621 0.15378 0.24223 1.07000
H 	H 	0.79731 0.10595 0.20889 0.16000
H 	H 	0.95325 0.01804 0.25570 0.15300
C 	C 	0.82829 0.93575 0.28695 0.28000
O 	O 	0.00500 0.23379 0.22485 -0.45000
C 	C 	0.75951 0.93594 0.16095 0.27600
C 	C 	0.70384 0.08373 0.28171 0.27700
C 	C 	0.98902 0.23328 0.19300 0.32300
C 	C 	0.00833 0.23414 0.29995 0.27300
C 	C 	0.06341 0.05045 0.18253 0.26600
O 	O 	0.83126 0.01198 0.29608 -0.36900
O 	O 	0.69433 0.00286 0.27475 -0.40100
C 	C 	0.09619 0.45987 0.13562 -0.05700
C 	C 	0.01481 0.41143 0.13186 -0.02900
C 	C 	0.98192 0.33529 0.14952 0.03100
H 	H 	0.92036 0.29644 0.14558 0.02700
C 	C 	0.02616 0.31268 0.17404 -0.12100
C 	C 	0.10522 0.36768 0.18073 0.04000
C 	C 	0.14033 0.43743 0.16016 -0.03900
H 	H 	0.20202 0.47595 0.16393 0.04100
C 	C 	0.15003 0.35768 0.21051 0.00100
C 	C 	0.19441 0.30454 0.20906 -0.07500
C 	C 	0.23877 0.29731 0.23690 -0.04900
C 	C 	0.24283 0.34709 0.26555 -0.04500
C 	C 	0.20379 0.40529 0.26611 -0.02700
C 	C 	0.15762 0.41087 0.23867 -0.04800
C 	C 	0.96174 0.44647 0.11433 0.05000
C 	C 	0.92913 0.49816 0.13181 -0.06300
C 	C 	0.87994 0.53301 0.11523 -0.01900
C 	C 	0.86220 0.51546 0.08127 -0.04600
C 	C 	0.89358 0.46289 0.06392 -0.01300
C 	C 	0.94325 0.42817 0.08035 -0.05300
H 	H 	0.85557 0.57345 0.12876 0.02800
H 	H 	0.82399 0.54231 0.06839 0.03200
H 	H 	0.87948 0.44933 0.03778 0.03000
H 	H 	0.96792 0.38800 0.06669 0.05200
H 	H 	0.94219 0.51149 0.15818 0.04500
H 	H 	0.19563 0.27019 0.18628 0.05500
H 	H 	0.27113 0.25432 0.23605 0.02100
H 	H 	0.13002 0.45840 0.23881 0.03700
H 	H 	0.21031 0.44705 0.28758 0.03600
H 	H 	0.27759 0.34193 0.28702 0.03000
C 	C 	0.55490 0.86355 0.09789 -0.07800
C 	C 	0.57271 0.93568 0.11952 0.02300
C 	C 	0.64320 0.96303 0.13849 -0.03700
H 	H 	0.65494 0.01513 0.15647 0.01800
C 	C 	0.69772 0.92208 0.13498 -0.08100
C 	C 	0.68312 0.85560 0.11107 0.02100
C 	C 	0.61097 0.82514 0.09345 -0.02200
H 	H 	0.59911 0.77244 0.07569 0.03800
C 	C 	0.74278 0.81704 0.10438 0.01300
C 	C 	0.81673 0.86773 0.09256 -0.04300
C 	C 	0.87206 0.83037 0.08532 -0.02100
C 	C 	0.85314 0.74218 0.08898 -0.03900
C 	C 	0.77900 0.69133 0.10009 -0.02400
C 	C 	0.72435 0.72869 0.10822 -0.04800
C 	C 	0.52077 0.98612 0.12100 0.01100
C 	C 	0.51786 0.03920 0.09446 -0.03400
C 	C 	0.47117 0.08950 0.09642 -0.01500
C 	C 	0.42808 0.08794 0.12500 -0.03100
C 	C 	0.43093 0.03537 0.15153 -0.00900
C 	C 	0.47658 0.98387 0.14947 -0.05000
H 	H 	0.46869 0.13000 0.07585 0.03600
H 	H 	0.39243 0.12740 0.12658 0.03800
H 	H 	0.39855 0.03538 0.17384 0.03000
H 	H 	0.47871 0.94349 0.17017 0.03300
H 	H 	0.55176 0.04149 0.07242 0.04800
H 	H 	0.83099 0.93571 0.08879 0.05000
H 	H 	0.92938 0.86966 0.07669 0.03600
H 	H 	0.66736 0.68890 0.11713 0.04000
H 	H 	0.76352 0.62289 0.10219 0.02900
H 	H 	0.89580 0.71323 0.08311 0.03100
C 	C 	0.21282 0.95252 0.12815 -0.08900
C 	C 	0.18239 0.91672 0.15897 0.01700
C 	C 	0.13844 0.95361 0.17780 -0.04000
H 	H 	0.11270 0.92413 0.20086 0.02300
C 	C 	0.12248 0.02422 0.16578 -0.06700
C 	C 	0.15770 0.06391 0.13616 0.01500
C 	C 	0.20531 0.02954 0.11831 -0.00800
H 	H 	0.22959 0.05772 0.09486 0.03900
C 	C 	0.14032 0.13707 0.12221 0.01800
C 	C 	0.06517 0.12486 0.10898 -0.03400
C 	C 	0.04944 0.19377 0.09523 -0.03400
C 	C 	0.10895 0.27446 0.09387 -0.02600
C 	C 	0.18405 0.28669 0.10665 -0.02000
C 	C 	0.20001 0.21807 0.12057 -0.04700
C 	C 	0.18789 0.83443 0.16951 -0.00400
C 	C 	0.12262 0.75804 0.16556 -0.09200
C 	C 	0.12935 0.67958 0.17339 -0.05600
C 	C 	0.20097 0.67703 0.18526 -0.04900
C 	C 	0.26588 0.75300 0.18952 -0.03600
C 	C 	0.25944 0.83164 0.18174 -0.05700
H 	H 	0.07887 0.62088 0.17062 0.02600
H 	H 	0.20582 0.61638 0.19168 0.03200
H 	H 	0.32119 0.75096 0.19886 0.02700
H 	H 	0.30989 0.89013 0.18513 0.03700
H 	H 	0.06717 0.75945 0.15602 0.02400
H 	H 	0.01921 0.06208 0.10926 0.04900
H 	H 	0.99125 0.18452 0.08544 0.05000
H 	H 	0.25841 0.22796 0.13034 0.03900
H 	H 	0.22991 0.34935 0.10576 0.04300
H 	H 	0.09687 0.32747 0.08289 0.04400
C 	C 	0.49611 0.01447 0.32959 -0.06300
C 	C 	0.56576 0.03285 0.34905 0.02000
C 	C 	0.63849 0.07726 0.33486 -0.01800
H 	H 	0.69220 0.08589 0.34889 0.04800
C 	C 	0.64225 0.09809 0.30101 -0.06800
C 	C 	0.57308 0.09600 0.28422 0.01300
C 	C 	0.49980 0.05184 0.29820 -0.02700
H 	H 	0.44618 0.04502 0.28439 0.02600
C 	C 	0.57739 0.14389 0.25311 0.00300
C 	C 	0.56582 0.22248 0.25386 -0.04700
C 	C 	0.57192 0.26927 0.22465 -0.02800
C 	C 	0.59040 0.23835 0.19471 -0.03600
C 	C 	0.60227 0.16029 0.19386 -0.03300
C 	C 	0.59443 0.11222 0.22284 -0.04500
C 	C 	0.56324 0.00425 0.38390 0.03000
C 	C 	0.58015 0.93080 0.39153 -0.05100
C 	C 	0.57854 0.90441 0.42458 -0.00600
C 	C 	0.55953 0.95072 0.45003 -0.04400
C 	C 	0.54283 0.02403 0.44254 -0.00500
C 	C 	0.54473 0.05092 0.40954 -0.04400
H 	H 	0.59161 0.84786 0.43047 0.03600
H 	H 	0.55800 0.92992 0.47555 0.03800
H 	H 	0.52837 0.05996 0.46228 0.03400
H 	H 	0.53179 0.10777 0.40389 0.04600
H 	H 	0.59467 0.89445 0.37191 0.05200
H 	H 	0.55266 0.24748 0.27708 0.03800
H 	H 	0.56298 0.32987 0.22529 0.03000
H 	H 	0.60203 0.05089 0.22180 0.00600
H 	H 	0.61713 0.13690 0.17071 0.03000
H 	H 	0.59565 0.27493 0.17218 0.03400
C 	C 	0.04247 0.31749 0.31748 -0.06800
C 	C 	0.01695 0.38592 0.31005 -0.00200
C 	C 	0.05826 0.46800 0.32360 -0.01500
H 	H 	0.03805 0.52016 0.31812 0.04400
C 	C 	0.12061 0.48100 0.34667 -0.07900
C 	C 	0.14330 0.41068 0.35519 0.01900
C 	C 	0.10511 0.33054 0.34002 -0.02500
H 	H 	0.12316 0.27737 0.34643 0.04000
C 	C 	0.20362 0.41827 0.38142 0.01500
C 	C 	0.18054 0.39451 0.41421 -0.05500
C 	C 	0.23552 0.38965 0.43810 -0.02800
C 	C 	0.31309 0.40588 0.42919 -0.04000
C 	C 	0.33600 0.42770 0.39644 -0.01600
C 	C 	0.28161 0.43453 0.37260 -0.04900
C 	C 	0.94272 0.37044 0.29108 0.03400
C 	C 	0.94173 0.37012 0.25610 -0.06400
C 	C 	0.87089 0.35206 0.23829 -0.02100
C 	C 	0.80107 0.33619 0.25530 -0.04600
C 	C 	0.80196 0.33824 0.29017 -0.00900
C 	C 	0.87255 0.35496 0.30808 -0.05000
H 	H 	0.87023 0.35106 0.21130 0.02900
H 	H 	0.74633 0.32228 0.24148 0.04000
H 	H 	0.74779 0.32558 0.30330 0.03500
H 	H 	0.87267 0.35520 0.33509 0.05300
H 	H 	0.99557 0.38435 0.24277 0.05800
H 	H 	0.11986 0.37880 0.42102 0.04300
H 	H 	0.21761 0.37172 0.46337 0.02700
H 	H 	0.29944 0.44988 0.34713 0.03800
H 	H 	0.39564 0.43819 0.38942 0.03100
H 	H 	0.35520 0.40043 0.44754 0.04500
C 	C 	0.87664 0.89499 0.30561 -0.08500
C 	C 	0.91458 0.93033 0.33654 0.01500
C 	C 	0.97483 0.90540 0.34915 -0.01300
H 	H 	0.00361 0.93256 0.37270 0.02900
C 	C 	0.99933 0.84710 0.33167 -0.05700
C 	C 	0.95777 0.80644 0.30247 0.00300
C 	C 	0.89563 0.82934 0.29002 -0.02600
H 	H 	0.86511 0.79935 0.26716 0.04200
C 	C 	0.97903 0.74051 0.28461 0.04500
C 	C 	0.05153 0.76280 0.26884 -0.07400
C 	C 	0.07405 0.69911 0.25438 -0.00700
C 	C 	0.02249 0.61381 0.25373 -0.06300
C 	C 	0.94902 0.59187 0.26832 0.00600
C 	C 	0.92765 0.65478 0.28413 -0.05800
C 	C 	0.89413 0.99554 0.35569 0.01500
C 	C 	0.95189 0.07649 0.36261 -0.02000
C 	C 	0.93476 0.13595 0.38270 -0.01900
C 	C 	0.86038 0.11479 0.39628 -0.03100
C 	C 	0.80290 0.03419 0.38974 -0.01800
C 	C 	0.81936 0.97478 0.36932 -0.04000
H 	H 	0.97929 0.19832 0.38786 0.04200
H 	H 	0.84734 0.16073 0.41198 0.03700
H 	H 	0.74567 0.01774 0.40054 0.03500
H 	H 	0.77417 0.91311 0.36400 0.04200
H 	H 	0.01000 0.09308 0.35250 0.03300
H 	H 	0.09122 0.82898 0.26868 0.02400
H 	H 	0.13178 0.71578 0.24405 0.02800
H 	H 	0.87153 0.63691 0.29618 0.04600
H 	H 	0.90889 0.52614 0.26763 0.03200
H 	H 	0.03962 0.56471 0.24211 0.03800
C 	C 	0.39133 0.12116 0.50830 -0.08300
C 	C 	0.38104 0.03320 0.51033 0.03500
C 	C 	0.35344 0.97952 0.48217 -0.04200
H 	H 	0.34852 0.91295 0.48319 0.03600
C 	C 	0.33214 0.01110 0.45274 -0.05800
C 	C 	0.33300 0.09600 0.45224 0.01400
C 	C 	0.36197 0.15002 0.48009 -0.01400
H 	H 	0.36483 0.21595 0.47924 0.04600
C 	C 	0.30609 0.13007 0.42244 0.01900
C 	C 	0.23288 0.14002 0.42214 -0.05000
C 	C 	0.20919 0.17647 0.39465 -0.02100
C 	C 	0.25847 0.20330 0.36747 -0.04700
C 	C 	0.33157 0.19390 0.36775 -0.03000
C 	C 	0.35561 0.15772 0.39522 -0.05600
C 	C 	0.39317 0.99488 0.54210 0.00800
C 	C 	0.34048 0.98561 0.56816 -0.05200
C 	C 	0.34492 0.93868 0.59633 -0.02600
C 	C 	0.40005 0.89843 0.59815 -0.04300
C 	C 	0.45143 0.90589 0.57198 -0.02500
C 	C 	0.44933 0.95555 0.54437 -0.04800
H 	H 	0.30478 0.93234 0.61651 0.02700
H 	H 	0.40246 0.86084 0.61969 0.03400
H 	H 	0.49298 0.87330 0.57310 0.03300
H 	H 	0.48961 0.96132 0.52429 0.03900
H 	H 	0.29577 0.01409 0.56642 0.05400
H 	H 	0.19472 0.12004 0.44325 0.04500
H 	H 	0.15285 0.18436 0.39451 0.03000
H 	H 	0.41262 0.15137 0.39541 0.04900
H 	H 	0.36975 0.21497 0.34674 0.02600
H 	H 	0.24021 0.23175 0.34626 0.03100
C 	C 	0.98935 0.56351 0.45262 -0.06200
C 	C 	0.91439 0.56473 0.44373 0.02000
C 	C 	0.84750 0.50226 0.45626 -0.02100
H 	H 	0.79011 0.50415 0.44985 0.01200
C 	C 	0.85471 0.45177 0.48280 -0.08200
C 	C 	0.92760 0.44276 0.48891 0.02400
C 	C 	0.99492 0.49887 0.47369 -0.00500
H 	H 	0.05131 0.49261 0.47840 0.02100
C 	C 	0.93353 0.37468 0.51088 0.01900
C 	C 	0.89017 0.28818 0.50315 -0.03900
C 	C 	0.89008 0.22436 0.52546 -0.01300
C 	C 	0.93530 0.24617 0.55493 -0.03600
C 	C 	0.98095 0.33187 0.56212 -0.00300
C 	C 	0.97955 0.39619 0.54035 -0.03100
C 	C 	0.90549 0.63803 0.42597 0.02400
C 	C 	0.86134 0.62402 0.39601 -0.04600
C 	C 	0.84001 0.68963 0.38262 -0.01800
C 	C 	0.86252 0.76911 0.39907 -0.03800
C 	C 	0.91139 0.78538 0.42747 -0.01900
C 	C 	0.93277 0.71999 0.44103 -0.05000
H 	H 	0.80475 0.67835 0.35985 0.03200
H 	H 	0.84211 0.81806 0.38984 0.03800
H 	H 	0.93028 0.84772 0.43968 0.03400
H 	H 	0.96711 0.73167 0.46409 0.04600
H 	H 	0.84150 0.56162 0.38377 0.04400
H 	H 	0.85533 0.27075 0.48025 0.04400
H 	H 	0.85578 0.15788 0.51968 0.03700
H 	H 	0.01347 0.46262 0.54651 0.03000
H 	H 	0.01741 0.34842 0.58457 0.02000
H 	H 	0.93659 0.19642 0.57178 0.05000
C 	C 	0.48347 0.55528 0.48078 -0.07800
C 	C 	0.42764 0.58999 0.49125 0.01800
C 	C 	0.40429 0.64216 0.46975 -0.02500
H 	H 	0.35951 0.66668 0.47742 -0.00800
C 	C 	0.43381 0.65796 0.43756 -0.09000
C 	C 	0.49251 0.62690 0.42757 0.02300
C 	C 	0.51663 0.57522 0.44925 -0.02800
H 	H 	0.56204 0.55152 0.44178 0.01900
C 	C 	0.53185 0.65168 0.39523 0.01000
C 	C 	0.61213 0.70204 0.39465 -0.04900
C 	C 	0.64936 0.72513 0.36419 -0.02300
C 	C 	0.60692 0.69828 0.33425 -0.03900
C 	C 	0.52726 0.64740 0.33465 -0.02200
C 	C 	0.48982 0.62352 0.36501 -0.04900
C 	C 	0.39317 0.57234 0.52468 0.01100
C 	C 	0.40824 0.63946 0.54817 -0.05000
C 	C 	0.36940 0.62488 0.57847 -0.02500
C 	C 	0.31756 0.54281 0.58597 -0.04100
C 	C 	0.30276 0.47565 0.56278 -0.02000
C 	C 	0.33937 0.49053 0.53195 -0.04800
H 	H 	0.37875 0.67741 0.59598 0.03100
H 	H 	0.28826 0.53145 0.60961 0.03300
H 	H 	0.26222 0.41236 0.56854 0.03400
H 	H 	0.32558 0.43885 0.51366 0.04800
H 	H 	0.44870 0.70315 0.54263 0.04000
H 	H 	0.64553 0.72330 0.41773 0.03600
H 	H 	0.71115 0.76335 0.36378 0.03000
H 	H 	0.42817 0.58419 0.36500 0.04500
H 	H 	0.49452 0.62633 0.31143 0.02800
H 	H 	0.63589 0.71660 0.31072 0.03500
C 	C 	0.74430 0.01379 0.64416 -0.07400
C 	C 	0.66959 0.98636 0.62862 0.01400
C 	C 	0.64449 0.04595 0.61233 -0.02300
H 	H 	0.58861 0.02407 0.59897 0.04400
C 	C 	0.69107 0.13372 0.61340 -0.08100
C 	C 	0.76058 0.16200 0.63359 0.02100
C 	C 	0.78810 0.10131 0.64756 -0.02400
H 	H 	0.84322 0.12233 0.66168 0.02100
C 	C 	0.80055 0.25325 0.64327 0.02100
C 	C 	0.88147 0.29321 0.63824 -0.04100
C 	C 	0.92249 0.37423 0.65213 -0.01400
C 	C 	0.88354 0.41505 0.67168 -0.03900
C 	C 	0.80298 0.37596 0.67672 -0.02200
C 	C 	0.76138 0.29529 0.66253 -0.04500
C 	C 	0.61557 0.89672 0.63104 0.01500
C 	C 	0.61906 0.83475 0.60802 -0.04700
C 	C 	0.57032 0.74899 0.61137 -0.02400
C 	C 	0.51835 0.72500 0.63777 -0.03900
C 	C 	0.51302 0.78710 0.66015 -0.02600
C 	C 	0.56131 0.87294 0.65676 -0.04700
H 	H 	0.57275 0.70112 0.59354 0.03600
H 	H 	0.48156 0.65844 0.64064 0.03400
H 	H 	0.47191 0.76863 0.68027 0.02800
H 	H 	0.55735 0.92072 0.67433 0.03600
H 	H 	0.65951 0.85315 0.58767 0.04400
H 	H 	0.91319 0.25937 0.62524 0.04900
H 	H 	0.98503 0.40425 0.64857 0.03600
H 	H 	0.69942 0.26433 0.66733 0.02300
H 	H 	0.77298 0.40781 0.69192 0.02500
H 	H 	0.91602 0.47642 0.68330 0.04000
C 	C 	0.30649 0.24259 0.60637 -0.06900
C 	C 	0.28293 0.20510 0.63787 0.00400
C 	C 	0.20304 0.16742 0.64458 -0.01300
H 	H 	0.18571 0.14527 0.66947 -0.04300
C 	C 	0.14546 0.16149 0.62003 -0.10100
C 	C 	0.16882 0.18846 0.58733 0.02700
C 	C 	0.24910 0.23012 0.58092 -0.02800
H 	H 	0.26687 0.25129 0.55588 0.05000
C 	C 	0.11118 0.16811 0.55908 0.01000
C 	C 	0.10997 0.23334 0.53740 -0.05100
C 	C 	0.06679 0.21264 0.50735 -0.01700
C 	C 	0.02243 0.12721 0.49927 -0.05300
C 	C 	0.02212 0.06214 0.52098 -0.02700
C 	C 	0.06720 0.08222 0.55058 -0.04000
C 	C 	0.34047 0.20111 0.66362 0.02100
C 	C 	0.35647 0.25559 0.69179 -0.05600
C 	C 	0.40863 0.24938 0.71675 -0.02200
C 	C 	0.44494 0.18895 0.71369 -0.04200
C 	C 	0.42860 0.13400 0.68583 -0.03500
C 	C 	0.37565 0.13913 0.66103 -0.06700
H 	H 	0.42061 0.29111 0.73852 0.03200
H 	H 	0.48518 0.18419 0.73307 0.03200
H 	H 	0.45615 0.08669 0.68366 0.02100
H 	H 	0.36247 0.09570 0.63971 0.03300
H 	H 	0.32822 0.30222 0.69440 0.03100
H 	H 	0.14369 0.29979 0.54354 0.03700
H 	H 	0.06682 0.26300 0.49055 0.02600
H 	H 	0.06999 0.03100 0.56631 0.05200
H 	H 	0.98815 0.99595 0.51457 0.04200
H 	H 	0.98822 0.11144 0.47620 0.04700
C 	C 	0.81259 0.60278 0.60040 -0.07300
C 	C 	0.84014 0.68313 0.58400 0.02700
C 	C 	0.90037 0.75228 0.59923 -0.01500
H 	H 	0.91928 0.81434 0.58742 0.05000
C 	C 	0.91986 0.74774 0.63287 -0.07000
C 	C 	0.90407 0.66606 0.64654 0.01600
C 	C 	0.84984 0.59378 0.63022 -0.01600
H 	H 	0.83204 0.53212 0.64202 0.04300
C 	C 	0.93512 0.65748 0.68010 0.02200
C 	C 	0.01638 0.68222 0.68589 -0.05800
C 	C 	0.04547 0.67064 0.71725 -0.05000
C 	C 	0.99379 0.63480 0.74293 0.00500
C 	C 	0.91282 0.61043 0.73735 -0.03300
C 	C 	0.88341 0.62252 0.70614 -0.04100
C 	C 	0.79730 0.70046 0.55495 0.00600
C 	C 	0.73530 0.72986 0.55998 -0.05100
C 	C 	0.69326 0.74447 0.53266 -0.02200
C 	C 	0.71303 0.72989 0.50029 -0.05000
C 	C 	0.77588 0.70250 0.49517 -0.05900
C 	C 	0.82029 0.69153 0.52240 -0.07600
H 	H 	0.64412 0.76492 0.53656 0.03500
H 	H 	0.67891 0.73860 0.47922 0.03500
H 	H 	0.78892 0.68794 0.47021 0.02800
H 	H 	0.87086 0.67360 0.51821 0.05600
H 	H 	0.71895 0.73966 0.58505 0.05400
H 	H 	0.05679 0.70930 0.66601 0.04000
H 	H 	0.10799 0.68827 0.72153 0.03400
H 	H 	0.82063 0.60428 0.70210 0.03600
H 	H 	0.87283 0.58247 0.75722 0.03800
H 	H 	0.01658 0.62581 0.76712 0.01500
C 	C 	0.05110 0.59333 0.00347 -0.07000
C 	C 	0.01642 0.64871 0.98900 -0.00900
C 	C 	0.94762 0.61456 0.96957 -0.00000
H 	H 	0.92098 0.65759 0.95920 0.03700
C 	C 	0.91658 0.52684 0.96125 -0.08600
C 	C 	0.95265 0.47140 0.97483 0.04200
C 	C 	0.01907 0.50513 0.99594 -0.04300
H 	H 	0.04513 0.46221 0.00688 0.04900
C 	C 	0.92228 0.37829 0.96690 0.00600
C 	C 	0.85002 0.32464 0.97933 -0.04200
C 	C 	0.81799 0.23859 0.96911 -0.03100
C 	C 	0.85796 0.20558 0.94665 -0.03000
C 	C 	0.93039 0.25835 0.93457 -0.02800
C 	C 	0.96285 0.34440 0.94480 -0.01400
C 	C 	0.05424 0.74294 0.99217 0.03600
C 	C 	0.02368 0.78918 0.01371 -0.07700
C 	C 	0.06165 0.87783 0.01776 -0.01100
C 	C 	0.12915 0.92072 0.99988 -0.03800
C 	C 	0.15861 0.87510 0.97781 -0.02200
C 	C 	0.12151 0.78638 0.97403 -0.05800
H 	H 	0.03887 0.91326 0.03479 0.02500
H 	H 	0.15843 0.98932 0.00301 0.03300
H 	H 	0.20993 0.90851 0.96351 0.02900
H 	H 	0.14514 0.75142 0.95721 0.03900
H 	H 	0.97156 0.75626 0.02770 0.05400
H 	H 	0.81732 0.35030 0.99575 0.03200
H 	H 	0.76168 0.19777 0.97827 0.03200
H 	H 	0.01831 0.38527 0.93487 0.02800
H 	H 	0.96104 0.23277 0.91705 0.04200
H 	H 	0.83271 0.13919 0.93853 0.03700
C 	C 	0.44873 0.97915 0.97916 -0.07500
C 	C 	0.52622 0.99582 0.96863 0.01200
C 	C 	0.55474 0.04834 0.94127 -0.01100
H 	H 	0.61504 0.06325 0.93389 0.03600
C 	C 	0.50682 0.08392 0.92402 -0.08300
C 	C 	0.42932 0.06674 0.93434 0.02700
C 	C 	0.40212 0.01781 0.96274 -0.01800
H 	H 	0.34271 0.00524 0.97074 0.03800
C 	C 	0.37449 0.09446 0.91423 0.01300
C 	C 	0.35763 0.16650 0.92419 -0.03900
C 	C 	0.29923 0.18712 0.90731 -0.01500
C 	C 	0.25728 0.13572 0.88058 -0.03100
C 	C 	0.27492 0.06480 0.87019 -0.02100
C 	C 	0.33372 0.04436 0.88683 -0.03300
C 	C 	0.57810 0.95889 0.98619 0.01400
C 	C 	0.62778 0.00481 0.01241 -0.03300
C 	C 	0.67984 0.97176 0.02793 -0.03000
C 	C 	0.68339 0.89361 0.01696 -0.03400
C 	C 	0.63432 0.84794 0.99069 -0.02500
C 	C 	0.58204 0.88065 0.97517 -0.05900
H 	H 	0.71748 0.00673 0.04842 0.04100
H 	H 	0.72390 0.86826 0.02890 0.03500
H 	H 	0.63692 0.78731 0.98233 0.02000
H 	H 	0.54472 0.84538 0.95461 0.03200
H 	H 	0.62670 0.06642 0.02043 0.03700
H 	H 	0.38907 0.20576 0.94515 0.05400
H 	H 	0.28598 0.24245 0.91517 0.03700
H 	H 	0.34648 0.98870 0.87891 0.03600
H 	H 	0.24275 0.02543 0.84935 0.04100
H 	H 	0.21126 0.15098 0.86786 0.04000
C 	C 	0.39174 0.50737 0.00833 -0.09000
C 	C 	0.38339 0.52603 0.97449 0.01000
C 	C 	0.42594 0.50197 0.95034 -0.01800
H 	H 	0.42289 0.52033 0.92467 0.04000
C 	C 	0.47460 0.45726 0.95922 -0.08200
C 	C 	0.47753 0.43148 0.99245 0.02000
C 	C 	0.43620 0.45705 0.01691 -0.02100
H 	H 	0.44188 0.44158 0.04281 0.03700
C 	C 	0.52657 0.38121 0.00199 0.00300
C 	C 	0.60800 0.42219 0.00670 -0.05900
C 	C 	0.65517 0.37379 0.01305 -0.03700
C 	C 	0.62141 0.28441 0.01444 -0.03600
C 	C 	0.54019 0.24342 0.01017 -0.02400
C 	C 	0.49263 0.29172 0.00437 -0.04000
C 	C 	0.33223 0.57311 0.96408 -0.01500
C 	C 	0.36526 0.65348 0.94916 -0.09300
C 	C 	0.31694 0.69076 0.93327 -0.02000
C 	C 	0.23560 0.64856 0.93246 -0.04600
C 	C 	0.20220 0.56982 0.94816 -0.02600
C 	C 	0.25029 0.53197 0.96393 -0.04300
H 	H 	0.34264 0.75192 0.92123 0.03400
H 	H 	0.19862 0.67621 0.91917 0.03400
H 	H 	0.13924 0.53700 0.94728 0.03500
H 	H 	0.22414 0.46947 0.97497 0.05200
H 	H 	0.42842 0.68573 0.94905 0.01300
H 	H 	0.63472 0.49125 0.00497 0.01500
H 	H 	0.71792 0.40555 0.01668 0.02100
H 	H 	0.42970 0.25970 0.00144 0.04200
H 	H 	0.51411 0.17426 0.01136 0.03900
H 	H 	0.65813 0.24696 0.01891 0.03200
C 	C 	0.82869 0.21799 0.82122 -0.08300
C 	C 	0.81164 0.13006 0.81405 0.01100
C 	C 	0.85007 0.10633 0.78805 -0.01500
H 	H 	0.83662 0.03893 0.78242 0.02800
C 	C 	0.91168 0.16830 0.77168 -0.09000
C 	C 	0.93021 0.25592 0.77948 0.05000
C 	C 	0.88563 0.28009 0.80273 -0.03600
H 	H 	0.89753 0.34760 0.80737 0.05000
C 	C 	0.00003 0.32236 0.76569 -0.03300
C 	C 	0.07568 0.33004 0.77691 -0.03200
C 	C 	0.14152 0.39414 0.76434 -0.04600
C 	C 	0.13211 0.45157 0.74100 -0.02700
C 	C 	0.05684 0.44511 0.73025 -0.06000
C 	C 	0.99084 0.38103 0.74272 0.00100
C 	C 	0.75979 0.06278 0.83552 0.01400
C 	C 	0.78918 0.04283 0.86565 -0.03500
C 	C 	0.73872 0.98413 0.88723 -0.02900
C 	C 	0.65905 0.94475 0.87872 -0.03100
C 	C 	0.62972 0.96373 0.84856 -0.02900
C 	C 	0.67988 0.02261 0.82696 -0.04500
H 	H 	0.76123 0.96972 0.91067 0.03300
H 	H 	0.61998 0.89988 0.89557 0.03300
H 	H 	0.56795 0.93356 0.84210 0.03100
H 	H 	0.65636 0.03884 0.80407 0.01800
H 	H 	0.85063 0.07407 0.87261 0.04500
H 	H 	0.08334 0.28629 0.79524 0.04300
H 	H 	0.19980 0.39945 0.77277 0.03400
H 	H 	0.93267 0.37737 0.73485 0.03100
H 	H 	0.04969 0.48984 0.71229 0.03500
H 	H 	0.18311 0.50126 0.73134 0.02600
C 	C 	0.39005 0.20347 0.81007 -0.07800
C 	C 	0.33892 0.24984 0.81060 0.02300
C 	C 	0.26316 0.21286 0.79671 -0.02700
H 	H 	0.22319 0.24757 0.79809 0.04500
C 	C 	0.23960 0.13342 0.77972 -0.06700
C 	C 	0.29248 0.08924 0.77746 0.01200
C 	C 	0.36668 0.12375 0.79335 -0.01600
H 	H 	0.40659 0.08890 0.79241 0.03400
C 	C 	0.27250 0.00919 0.75733 0.02300
C 	C 	0.25967 0.01005 0.72271 -0.04400
C 	C 	0.24500 0.93557 0.70350 -0.03500
C 	C 	0.24272 0.85984 0.71869 -0.03900
C 	C 	0.25396 0.85813 0.75323 -0.02300
C 	C 	0.26899 0.93262 0.77255 -0.05500
C 	C 	0.36530 0.33886 0.82419 0.01300
C 	C 	0.32285 0.36038 0.84938 -0.04400
C 	C 	0.34709 0.44445 0.86183 -0.02300
C 	C 	0.41389 0.50735 0.84938 -0.03600
C 	C 	0.45578 0.48666 0.82400 -0.02700
C 	C 	0.43103 0.40298 0.81105 -0.05300
H 	H 	0.31395 0.46090 0.88109 0.03400
H 	H 	0.43295 0.57223 0.85928 0.03600
H 	H 	0.50718 0.53559 0.81423 0.03100
H 	H 	0.46304 0.38788 0.79099 0.03700
H 	H 	0.27061 0.31239 0.85895 0.04000
H 	H 	0.26011 0.06804 0.71084 0.03300
H 	H 	0.23551 0.93661 0.67682 0.02800
H 	H 	0.27824 0.93099 0.79926 0.04000
H 	H 	0.25144 0.79919 0.76498 0.02800
H 	H 	0.23229 0.80250 0.70371 0.03100
C 	C 	0.80508 0.61977 0.83362 -0.08300
C 	C 	0.88801 0.65507 0.83081 0.02700
C 	C 	0.92215 0.72702 0.81102 -0.02200
H 	H 	0.98544 0.75353 0.80868 0.04600
C 	C 	0.87504 0.76063 0.79218 -0.07600
C 	C 	0.79257 0.72530 0.79474 0.01600
C 	C 	0.75833 0.65611 0.81580 -0.02000
H 	H 	0.69496 0.62938 0.81777 0.04100
C 	C 	0.74142 0.75918 0.77488 -0.01100
C 	C 	0.69215 0.70851 0.74943 -0.07900
C 	C 	0.64190 0.73948 0.73139 -0.04400
C 	C 	0.64107 0.82115 0.73851 -0.05200
C 	C 	0.69171 0.87275 0.76311 -0.04400
C 	C 	0.74101 0.84154 0.78167 -0.07800
C 	C 	0.93951 0.61515 0.84703 0.00500
C 	C 	0.97632 0.64670 0.87791 -0.01000
C 	C 	0.02747 0.61101 0.89252 -0.04900
C 	C 	0.04162 0.54351 0.87653 -0.01400
C 	C 	0.00566 0.51242 0.84562 -0.04800
C 	C 	0.95487 0.54820 0.83079 -0.00700
H 	H 	0.05599 0.63552 0.91626 0.03800
H 	H 	0.08075 0.51558 0.88800 0.03000
H 	H 	0.01737 0.46079 0.83311 0.04100
H 	H 	0.92634 0.52296 0.80706 0.03700
H 	H 	0.96532 0.69869 0.89054 0.04000
H 	H 	0.69277 0.64528 0.74372 0.03900
H 	H 	0.60365 0.70023 0.71189 0.03300
H 	H 	0.77886 0.88120 0.80122 0.04800
H 	H 	0.69300 0.93704 0.76763 0.02900
H 	H 	0.60177 0.84482 0.72477 0.04000
