data_crystal

_cell_length_a 23.13670
_cell_length_b 26.38616
_cell_length_c 26.14320
_cell_angle_alpha 88.28768
_cell_angle_beta  77.92286
_cell_angle_gamma 79.31398

_symmetry_space_group_name_	'P 1'
_symmetry_space_group_name_H-M	'P 1'

loop_
_symmetry_equiv_pos_as_xyz
  x,y,z

loop_
_atom_site_label
_atom_site_type_symbol
_atom_site_fract_x
_atom_site_fract_y
_atom_site_fract_z
_atom_site_charge
Ni	Ni	0.02456 0.95604 0.05765 1.09900
O 	O 	0.04799 0.97744 0.98121 -0.69000
Ni	Ni	0.00558 0.05167 0.98421 1.10200
O 	O 	0.04179 0.87785 0.04213 -0.37600
O 	O 	0.98777 0.89100 0.97823 -0.41400
O 	O 	0.11254 0.95011 0.06544 -0.37500
Ni	Ni	0.02832 0.94032 0.92594 1.07300
O 	O 	0.05303 0.00546 0.15132 -0.41700
O 	O 	0.94443 0.98030 0.92354 -0.38300
O 	O 	0.01209 0.06988 0.90587 -0.36800
O 	O 	0.99322 0.03241 0.06161 -0.70300
O 	O 	0.00203 0.94281 0.13572 -0.37800
O 	O 	0.97423 0.12827 0.00339 -0.37400
O 	O 	0.04690 0.12734 0.05072 -0.41200
Ni	Ni	0.04190 0.06397 0.09915 1.06600
H 	H 	0.09143 0.97787 0.97148 0.16400
H 	H 	0.95038 0.03985 0.07959 0.15100
C 	C 	0.90670 0.00158 0.96504 0.25600
O 	O 	0.11784 0.03421 0.04803 -0.43200
C 	C 	0.01919 0.85935 0.00602 0.26900
C 	C 	0.03359 0.03586 0.86716 0.28600
C 	C 	0.14413 0.98643 0.05030 0.30900
C 	C 	0.00194 0.15261 0.03150 0.27100
C 	C 	0.01231 0.97623 0.16786 0.28400
O 	O 	0.91970 0.03924 0.98979 -0.37600
O 	O 	0.06503 0.99049 0.87519 -0.41000
Ni	Ni	0.96221 0.96074 0.57740 1.10300
O 	O 	0.96164 0.96457 0.49887 -0.69200
Ni	Ni	0.94081 0.04117 0.48848 1.09800
O 	O 	0.98172 0.88102 0.57429 -0.36300
O 	O 	0.89962 0.87952 0.53906 -0.40900
O 	O 	0.05219 0.96397 0.55454 -0.37200
Ni	Ni	0.90091 0.93235 0.47850 1.06700
O 	O 	0.92500 0.04556 0.67088 -0.42000
O 	O 	0.83571 0.97811 0.52938 -0.40900
O 	O 	0.95056 0.03900 0.40942 -0.37100
O 	O 	0.92836 0.03607 0.56804 -0.69800
O 	O 	0.96832 0.95994 0.65570 -0.35500
O 	O 	0.94224 0.11959 0.48591 -0.37400
O 	O 	0.01071 0.10808 0.53821 -0.41900
Ni	Ni	0.96512 0.07930 0.60608 1.07000
H 	H 	0.00158 0.95028 0.47747 0.16000
H 	H 	0.88482 0.04196 0.58359 0.15800
C 	C 	0.81291 0.02436 0.51627 0.28400
O 	O 	0.04403 0.03150 0.60838 -0.40600
C 	C 	0.94903 0.85531 0.55253 0.27300
C 	C 	0.92958 0.00291 0.38860 0.25000
C 	C 	0.07384 0.00305 0.56791 0.28500
C 	C 	0.98134 0.13747 0.50745 0.27100
C 	C 	0.95083 0.00111 0.68727 0.27500
O 	O 	0.84839 0.05602 0.49389 -0.37000
O 	O 	0.88754 0.98006 0.41716 -0.39700
Ni	Ni	0.00829 0.47415 0.04769 1.09800
O 	O 	0.01844 0.47196 0.96779 -0.69300
Ni	Ni	0.99296 0.54689 0.95239 1.10400
O 	O 	0.03335 0.39509 0.05008 -0.37100
O 	O 	0.95817 0.38661 0.00894 -0.41700
O 	O 	0.09691 0.48256 0.03283 -0.39200
Ni	Ni	0.96463 0.43378 0.94436 1.06900
O 	O 	0.95243 0.56474 0.13714 -0.41900
O 	O 	0.89421 0.47948 0.98984 -0.42100
O 	O 	0.01310 0.53967 0.87326 -0.37700
O 	O 	0.97107 0.54665 0.03248 -0.69700
O 	O 	0.00271 0.47989 0.12740 -0.37400
O 	O 	0.98839 0.62544 0.94659 -0.36800
O 	O 	0.04915 0.61903 0.00503 -0.43700
Ni	Ni	0.99965 0.59415 0.07291 1.07200
H 	H 	0.06061 0.45932 0.94985 0.15500
H 	H 	0.92700 0.55087 0.04460 0.15900
C 	C 	0.86923 0.52200 0.97116 0.29600
O 	O 	0.07709 0.55145 0.08778 -0.40200
C 	C 	0.00541 0.36585 0.02732 0.27500
C 	C 	0.99854 0.50012 0.85223 0.27700
C 	C 	0.11436 0.52120 0.05205 0.30000
C 	C 	0.02121 0.64671 0.97218 0.28000
C 	C 	0.97264 0.52018 0.15738 0.29100
O 	O 	0.90270 0.55508 0.94890 -0.36300
O 	O 	0.95615 0.47634 0.87871 -0.41200
Ni	Ni	0.05672 0.43693 0.53377 1.10100
O 	O 	0.04818 0.46178 0.45959 -0.69200
Ni	Ni	0.99870 0.53356 0.47752 1.09900
O 	O 	0.07461 0.35801 0.52045 -0.36200
O 	O 	0.05046 0.35324 0.44153 -0.40800
O 	O 	0.14772 0.43962 0.51376 -0.36300
Ni	Ni	0.00119 0.42319 0.42666 1.07400
O 	O 	0.11523 0.48796 0.60682 -0.41000
O 	O 	0.94359 0.42750 0.49718 -0.42800
O 	O 	0.98606 0.55466 0.40417 -0.37700
O 	O 	0.01610 0.51085 0.54868 -0.70400
O 	O 	0.06602 0.42056 0.60843 -0.37600
O 	O 	0.96354 0.60798 0.50435 -0.36900
O 	O 	0.05066 0.61576 0.52884 -0.41200
Ni	Ni	0.07535 0.54743 0.56702 1.06600
H 	H 	0.08729 0.46346 0.43629 0.16300
H 	H 	0.97934 0.51372 0.57656 0.15900
C 	C 	0.90076 0.46800 0.50821 0.28400
O 	O 	0.13361 0.52581 0.49880 -0.42500
C 	C 	0.04822 0.33632 0.48921 0.28800
C 	C 	0.96974 0.52166 0.37612 0.28900
C 	C 	0.16883 0.48068 0.49366 0.28700
C 	C 	0.99509 0.63525 0.52548 0.27700
C 	C 	0.08468 0.45482 0.63349 0.28900
O 	O 	0.91277 0.51525 0.49882 -0.36400
O 	O 	0.94808 0.48246 0.39882 -0.41400
Ni	Ni	0.54538 0.94248 0.03494 1.10000
O 	O 	0.53617 0.95661 0.95918 -0.68300
Ni	Ni	0.50308 0.03377 0.96182 1.09900
O 	O 	0.56763 0.86313 0.02329 -0.35900
O 	O 	0.48130 0.86372 0.99596 -0.39500
O 	O 	0.63756 0.94118 0.01560 -0.37700
Ni	Ni	0.47134 0.92369 0.94517 1.07300
O 	O 	0.59959 0.00151 0.10707 -0.41100
O 	O 	0.41871 0.95704 0.01147 -0.42900
O 	O 	0.49632 0.04063 0.88505 -0.37400
O 	O 	0.50991 0.01991 0.03825 -0.69600
O 	O 	0.55005 0.93439 0.11178 -0.37500
O 	O 	0.48129 0.11304 0.97078 -0.36500
O 	O 	0.56086 0.11835 0.00760 -0.41300
Ni	Ni	0.56955 0.05602 0.05694 1.07300
H 	H 	0.57414 0.94742 0.93295 0.16400
H 	H 	0.47100 0.02780 0.06353 0.15900
C 	C 	0.38663 0.00217 0.00937 0.28900
O 	O 	0.62586 0.02450 0.99197 -0.44400
C 	C 	0.53397 0.83975 0.00070 0.25900
C 	C 	0.47324 0.00557 0.86512 0.27100
C 	C 	0.66063 0.98031 0.99342 0.32400
C 	C 	0.51096 0.14018 0.99397 0.29100
C 	C 	0.56407 0.97264 0.13490 0.28400
O 	O 	0.41098 0.03795 0.98194 -0.36200
O 	O 	0.43899 0.97809 0.89639 -0.40300
Ni	Ni	0.46301 0.96613 0.54137 1.10000
O 	O 	0.47047 0.97496 0.46255 -0.69700
Ni	Ni	0.43869 0.05055 0.45765 1.10000
O 	O 	0.49482 0.88762 0.53246 -0.36700
O 	O 	0.42072 0.87989 0.48930 -0.40300
O 	O 	0.54983 0.98016 0.53227 -0.35900
Ni	Ni	0.41857 0.93792 0.43421 1.07400
O 	O 	0.49773 0.03207 0.62101 -0.42200
O 	O 	0.34356 0.97213 0.48551 -0.40200
O 	O 	0.45716 0.05290 0.37791 -0.37100
O 	O 	0.42002 0.03985 0.53788 -0.69700
O 	O 	0.45545 0.96099 0.62112 -0.38200
O 	O 	0.43050 0.13057 0.45469 -0.36000
O 	O 	0.41375 0.14632 0.54142 -0.40400
Ni	Ni	0.45655 0.08354 0.57545 1.08000
H 	H 	0.51263 0.96601 0.44306 0.15900
H 	H 	0.37686 0.04282 0.55266 0.17100
C 	C 	0.31688 0.01965 0.48076 0.27000
O 	O 	0.52818 0.06689 0.51527 -0.42600
C 	C 	0.46937 0.85918 0.50613 0.27200
C 	C 	0.44645 0.01458 0.35216 0.26600
C 	C 	0.56763 0.02419 0.51608 0.26600
C 	C 	0.43643 0.15809 0.49392 0.29500
C 	C 	0.47073 0.99697 0.64675 0.29500
O 	O 	0.34786 0.05464 0.45817 -0.36400
O 	O 	0.40519 0.98793 0.37488 -0.39300
Ni	Ni	0.52503 0.46222 0.00687 1.09300
O 	O 	0.50947 0.46790 0.93201 -0.69100
Ni	Ni	0.48435 0.54604 0.92569 1.09900
O 	O 	0.53357 0.38289 0.01061 -0.37300
O 	O 	0.44805 0.38133 0.98166 -0.40700
O 	O 	0.61831 0.44512 0.98223 -0.36100
Ni	Ni	0.43940 0.43782 0.92611 1.07100
O 	O 	0.60017 0.52359 0.05977 -0.41300
O 	O 	0.38857 0.48005 0.98844 -0.42400
O 	O 	0.46965 0.54665 0.85157 -0.37900
O 	O 	0.50191 0.53990 0.99935 -0.68400
O 	O 	0.53858 0.46415 0.08118 -0.37600
O 	O 	0.47632 0.62560 0.92523 -0.36400
O 	O 	0.57132 0.61539 0.93664 -0.41100
Ni	Ni	0.57405 0.56867 0.00067 1.06500
H 	H 	0.54543 0.45397 0.90506 0.15800
H 	H 	0.46705 0.55496 0.02677 0.15500
C 	C 	0.36233 0.52735 0.98320 0.30900
O 	O 	0.62078 0.52043 0.94223 -0.42500
C 	C 	0.49936 0.35741 0.99098 0.29100
C 	C 	0.44420 0.51027 0.83749 0.28300
C 	C 	0.64933 0.47672 0.95415 0.30200
C 	C 	0.52194 0.64568 0.93217 0.28600
C 	C 	0.56446 0.50058 0.09529 0.27800
O 	O 	0.39191 0.55985 0.95438 -0.36700
O 	O 	0.40835 0.48788 0.87304 -0.40900
Ni	Ni	0.53299 0.45015 0.50917 1.10200
O 	O 	0.56932 0.46258 0.43122 -0.69100
Ni	Ni	0.53140 0.53784 0.42614 1.09500
O 	O 	0.53685 0.37083 0.50711 -0.36000
O 	O 	0.56786 0.35667 0.41956 -0.40500
O 	O 	0.61745 0.43747 0.52736 -0.36600
Ni	Ni	0.53845 0.42405 0.38367 1.07400
O 	O 	0.54849 0.50860 0.60472 -0.40100
O 	O 	0.45878 0.43907 0.43574 -0.42700
O 	O 	0.55397 0.54632 0.34630 -0.38500
O 	O 	0.50870 0.52676 0.50464 -0.70300
O 	O 	0.49755 0.44670 0.58722 -0.37000
O 	O 	0.50454 0.61674 0.43630 -0.36800
O 	O 	0.57135 0.61595 0.48949 -0.40900
Ni	Ni	0.55421 0.55952 0.54453 1.07100
H 	H 	0.61377 0.45749 0.42305 0.16000
H 	H 	0.46500 0.53765 0.51843 0.15700
C 	C 	0.42317 0.48457 0.43906 0.26600
O 	O 	0.63418 0.51889 0.50789 -0.41600
C 	C 	0.53743 0.34460 0.46469 0.29100
C 	C 	0.54013 0.51391 0.31564 0.28700
C 	C 	0.65277 0.47191 0.52202 0.29700
C 	C 	0.52952 0.64138 0.46668 0.27200
C 	C 	0.50372 0.48306 0.61836 0.27500
O 	O 	0.44516 0.52699 0.42277 -0.36300
O 	O 	0.50777 0.47987 0.33617 -0.41200
C 	C 	0.47064 0.48699 0.67284 -0.07400
C 	C 	0.44452 0.53603 0.69506 0.01100
C 	C 	0.43595 0.54345 0.74906 -0.01300
H 	H 	0.42033 0.58194 0.76567 0.04500
C 	C 	0.44691 0.50131 0.78170 -0.08300
C 	C 	0.46396 0.45093 0.76000 0.01600
C 	C 	0.47728 0.44423 0.70552 -0.01700
H 	H 	0.49523 0.40606 0.68863 0.05000
C 	C 	0.46730 0.40511 0.79374 -0.00600
C 	C 	0.52316 0.37894 0.80194 -0.07200
C 	C 	0.52667 0.33306 0.83029 -0.03700
C 	C 	0.47447 0.31357 0.85103 -0.05300
C 	C 	0.41868 0.33994 0.84358 -0.04300
C 	C 	0.41504 0.38543 0.81468 -0.06800
C 	C 	0.42176 0.57862 0.66250 0.00200
C 	C 	0.45108 0.62095 0.65161 -0.07900
C 	C 	0.42626 0.66326 0.62465 -0.03400
C 	C 	0.37204 0.66352 0.60886 -0.04700
C 	C 	0.34340 0.62100 0.61874 -0.02700
C 	C 	0.36825 0.57850 0.64530 -0.05900
H 	H 	0.44863 0.69607 0.61658 0.02700
H 	H 	0.35195 0.69678 0.58933 0.03700
H 	H 	0.30144 0.62132 0.60653 0.02700
H 	H 	0.34530 0.54600 0.65357 0.04100
H 	H 	0.49252 0.62131 0.66455 0.03100
H 	H 	0.56378 0.39368 0.78568 0.03700
H 	H 	0.56993 0.31227 0.83555 0.03000
H 	H 	0.37177 0.40525 0.80830 0.04400
H 	H 	0.37835 0.32479 0.85968 0.02900
H 	H 	0.47725 0.27784 0.87247 0.04000
C 	C 	0.56265 0.51338 0.25846 -0.08900
C 	C 	0.55184 0.55818 0.22847 0.02500
C 	C 	0.55360 0.55349 0.17481 -0.02800
H 	H 	0.54447 0.58781 0.15184 0.02500
C 	C 	0.56811 0.50483 0.15057 -0.07300
C 	C 	0.58836 0.46113 0.17881 0.02000
C 	C 	0.58405 0.46542 0.23281 -0.02100
H 	H 	0.59646 0.43127 0.25510 0.00800
C 	C 	0.62048 0.41270 0.15141 0.01900
C 	C 	0.68189 0.40716 0.12866 -0.04700
C 	C 	0.71209 0.36190 0.10141 -0.02000
C 	C 	0.68133 0.32179 0.09741 -0.03600
C 	C 	0.62038 0.32679 0.12086 -0.01600
C 	C 	0.58992 0.37210 0.14798 -0.04100
C 	C 	0.54508 0.60990 0.25116 0.02000
C 	C 	0.59446 0.63516 0.24252 -0.04900
C 	C 	0.58665 0.68697 0.25674 -0.01900
C 	C 	0.52964 0.71364 0.28002 -0.04100
C 	C 	0.48052 0.68827 0.29004 -0.01500
C 	C 	0.48807 0.63652 0.27529 -0.04300
H 	H 	0.62468 0.70660 0.24922 0.02900
H 	H 	0.52346 0.75405 0.28971 0.04200
H 	H 	0.43644 0.70902 0.30817 0.03200
H 	H 	0.44959 0.61749 0.28136 0.04600
H 	H 	0.63835 0.61511 0.22321 0.04200
H 	H 	0.70592 0.43817 0.13151 0.04200
H 	H 	0.75929 0.35797 0.08333 0.03200
H 	H 	0.54263 0.37590 0.16580 0.04600
H 	H 	0.59685 0.29556 0.11800 0.03300
H 	H 	0.70474 0.28678 0.07626 0.03400
C 	C 	0.51393 0.69800 0.47280 -0.07700
C 	C 	0.55984 0.72787 0.46658 0.01800
C 	C 	0.54608 0.77929 0.48448 -0.03000
H 	H 	0.58103 0.80246 0.47821 0.03900
C 	C 	0.48650 0.80229 0.50551 -0.07300
C 	C 	0.44130 0.77159 0.51400 0.01600
C 	C 	0.45510 0.72030 0.49620 -0.03000
H 	H 	0.42058 0.69687 0.50318 0.03500
C 	C 	0.37931 0.79296 0.54158 0.01900
C 	C 	0.36784 0.80816 0.59430 -0.04700
C 	C 	0.30937 0.82945 0.61990 -0.02000
C 	C 	0.26219 0.83540 0.59313 -0.03800
C 	C 	0.27339 0.82007 0.54070 -0.01900
C 	C 	0.33185 0.79920 0.51480 -0.04700
C 	C 	0.62178 0.70628 0.43909 0.01700
C 	C 	0.63382 0.69464 0.38545 -0.04700
C 	C 	0.69174 0.67164 0.36001 -0.02100
C 	C 	0.73788 0.66047 0.38792 -0.03800
C 	C 	0.72627 0.67259 0.44126 -0.02100
C 	C 	0.66837 0.69554 0.46687 -0.04400
H 	H 	0.70082 0.66240 0.31870 0.02900
H 	H 	0.78260 0.64240 0.36826 0.03500
H 	H 	0.76207 0.66398 0.46278 0.03500
H 	H 	0.65948 0.70424 0.50833 0.03900
H 	H 	0.59820 0.70296 0.36374 0.04700
H 	H 	0.40415 0.80355 0.61529 0.04200
H 	H 	0.30062 0.84133 0.66048 0.03100
H 	H 	0.34041 0.78838 0.47387 0.03700
H 	H 	0.23679 0.82436 0.52014 0.03100
H 	H 	0.21695 0.85188 0.61300 0.04000
C 	C 	0.46655 0.20366 0.48456 -0.08200
C 	C 	0.49660 0.21954 0.52195 0.02400
C 	C 	0.52103 0.26456 0.51377 -0.02000
H 	H 	0.54414 0.27620 0.54227 0.05300
C 	C 	0.51523 0.29502 0.46977 -0.07500
C 	C 	0.48646 0.27876 0.43182 0.01700
C 	C 	0.46316 0.23294 0.43926 -0.01700
H 	H 	0.44044 0.22116 0.41054 0.05000
C 	C 	0.47628 0.31123 0.38632 0.00400
C 	C 	0.42052 0.34356 0.38780 -0.05400
C 	C 	0.41190 0.37648 0.34604 -0.02500
C 	C 	0.45836 0.37612 0.30208 -0.05300
C 	C 	0.51290 0.34187 0.29924 -0.05100
C 	C 	0.52162 0.30887 0.34094 -0.06400
C 	C 	0.50291 0.18975 0.57002 -0.00900
C 	C 	0.45737 0.19924 0.61538 -0.06400
C 	C 	0.46491 0.17349 0.66175 -0.04900
C 	C 	0.51889 0.14012 0.66374 -0.05100
C 	C 	0.56539 0.13248 0.61943 -0.03100
C 	C 	0.55751 0.15711 0.57261 -0.06500
H 	H 	0.42910 0.17970 0.69621 0.03100
H 	H 	0.52481 0.12033 0.69964 0.03900
H 	H 	0.60777 0.10790 0.62153 0.03900
H 	H 	0.59402 0.15150 0.53870 0.05100
H 	H 	0.41590 0.22588 0.61440 0.04700
H 	H 	0.38408 0.34317 0.42124 0.04800
H 	H 	0.36932 0.40236 0.34784 0.03600
H 	H 	0.56406 0.28259 0.33863 0.04300
H 	H 	0.54846 0.34102 0.26483 0.02700
H 	H 	0.45192 0.40203 0.27003 0.04000
C 	C 	0.51475 0.69975 0.94715 -0.07700
C 	C 	0.49467 0.71331 0.00055 -0.00400
C 	C 	0.51647 0.75264 0.02143 -0.03500
H 	H 	0.50055 0.76292 0.06251 0.04400
C 	C 	0.54943 0.78471 0.98824 -0.05300
C 	C 	0.57128 0.77002 0.93521 0.00500
C 	C 	0.55074 0.72995 0.91446 -0.01800
H 	H 	0.56750 0.71912 0.87359 0.03800
C 	C 	0.61497 0.79702 0.90065 0.00200
C 	C 	0.67519 0.77237 0.88502 -0.04400
C 	C 	0.71585 0.79644 0.84987 -0.02900
C 	C 	0.69653 0.84483 0.82981 -0.03200
C 	C 	0.63650 0.86924 0.84470 -0.04300
C 	C 	0.59544 0.84502 0.87922 -0.03200
C 	C 	0.45090 0.68619 0.03489 0.00700
C 	C 	0.46687 0.65772 0.07771 -0.07900
C 	C 	0.42539 0.63207 0.10995 -0.02900
C 	C 	0.36823 0.63421 0.09929 -0.04700
C 	C 	0.35204 0.66267 0.05688 -0.01600
C 	C 	0.39310 0.68879 0.02479 -0.05900
H 	H 	0.43766 0.61021 0.14297 0.02600
H 	H 	0.33646 0.61385 0.12394 0.03500
H 	H 	0.30757 0.66468 0.04904 0.03100
H 	H 	0.38015 0.71087 0.99206 0.05900
H 	H 	0.51140 0.65523 0.08571 0.01400
H 	H 	0.69035 0.73458 0.89995 0.03900
H 	H 	0.76221 0.77739 0.83781 0.02900
H 	H 	0.54851 0.86319 0.88876 -0.03700
H 	H 	0.62173 0.90678 0.82921 0.02500
H 	H 	0.72796 0.86321 0.80234 0.03100
C 	C 	0.50095 0.19635 0.98798 -0.06500
C 	C 	0.54159 0.21877 0.95008 0.02200
C 	C 	0.54600 0.27057 0.95533 -0.02800
H 	H 	0.57705 0.28776 0.92614 0.03200
C 	C 	0.50788 0.30113 0.99603 -0.06600
C 	C 	0.46763 0.27862 0.03417 0.01600
C 	C 	0.46252 0.22708 0.02852 -0.03600
H 	H 	0.43188 0.20980 0.05808 0.03200
C 	C 	0.43591 0.30701 0.08290 0.01600
C 	C 	0.38252 0.34273 0.08398 -0.04200
C 	C 	0.35633 0.37329 0.12854 -0.02400
C 	C 	0.38094 0.36595 0.17328 -0.03600
C 	C 	0.43235 0.32851 0.17324 -0.02300
C 	C 	0.46015 0.29940 0.12803 -0.04600
C 	C 	0.57860 0.18851 0.90399 0.01700
C 	C 	0.55082 0.16927 0.86774 -0.04800
C 	C 	0.58582 0.14231 0.82326 -0.01800
C 	C 	0.64849 0.13506 0.81439 -0.04200
C 	C 	0.67638 0.15384 0.85049 -0.02100
C 	C 	0.64164 0.18025 0.89541 -0.04800
H 	H 	0.56440 0.12726 0.79551 0.03400
H 	H 	0.67547 0.11483 0.77955 0.03400
H 	H 	0.72488 0.14826 0.84343 0.02800
H 	H 	0.66357 0.19455 0.92330 0.04600
H 	H 	0.50228 0.17539 0.87397 0.05300
H 	H 	0.36209 0.34754 0.05004 0.04700
H 	H 	0.31751 0.40305 0.12815 0.03700
H 	H 	0.50054 0.27116 0.12800 0.04100
H 	H 	0.45098 0.32235 0.20803 0.03400
H 	H 	0.36021 0.38926 0.20795 0.03500
C 	C 	0.46405 0.99521 0.70395 -0.06900
C 	C 	0.49719 0.95441 0.72776 0.01800
C 	C 	0.50232 0.95949 0.77983 -0.01300
H 	H 	0.52706 0.92778 0.79829 0.01800
C 	C 	0.47413 0.00463 0.80870 -0.09200
C 	C 	0.43853 0.04435 0.78566 0.03000
C 	C 	0.43481 0.03984 0.73325 -0.04000
H 	H 	0.41009 0.07163 0.71484 0.02000
C 	C 	0.40106 0.08866 0.81724 0.01300
C 	C 	0.34725 0.08264 0.85125 -0.03800
C 	C 	0.31201 0.12434 0.88162 -0.01900
C 	C 	0.33005 0.17229 0.87773 -0.03300
C 	C 	0.38323 0.17864 0.84330 -0.02100
C 	C 	0.41866 0.13696 0.81297 -0.04200
C 	C 	0.52755 0.90670 0.69814 0.01900
C 	C 	0.49482 0.86820 0.69233 -0.04200
C 	C 	0.52239 0.82493 0.66078 -0.01600
C 	C 	0.58271 0.81974 0.63535 -0.03400
C 	C 	0.61575 0.85756 0.64180 -0.01700
C 	C 	0.58831 0.90102 0.67313 -0.04500
H 	H 	0.49696 0.79552 0.65589 0.03100
H 	H 	0.60386 0.78639 0.61068 0.03600
H 	H 	0.66254 0.85327 0.62238 0.03100
H 	H 	0.61389 0.93056 0.67738 0.04500
H 	H 	0.44785 0.87234 0.71136 0.04300
H 	H 	0.33307 0.04565 0.85426 0.04200
H 	H 	0.27074 0.11949 0.90814 0.03600
H 	H 	0.45968 0.14215 0.78638 0.03900
H 	H 	0.39707 0.21580 0.84022 0.03200
H 	H 	0.30277 0.20454 0.90129 0.03700
C 	C 	0.54002 0.98289 0.19198 -0.06900
C 	C 	0.52992 0.03327 0.21374 -0.00200
C 	C 	0.49793 0.04309 0.26540 -0.01400
H 	H 	0.48846 0.08206 0.28103 0.04700
C 	C 	0.47843 0.00314 0.29700 -0.09300
C 	C 	0.49248 0.95214 0.27656 0.02900
C 	C 	0.52182 0.94271 0.22411 -0.02700
H 	H 	0.53123 0.90372 0.20853 0.05100
C 	C 	0.48172 0.90774 0.31061 -0.01000
C 	C 	0.52629 0.88306 0.33658 -0.08000
C 	C 	0.51753 0.83938 0.36661 -0.04500
C 	C 	0.46357 0.82109 0.37215 -0.06000
C 	C 	0.41902 0.84554 0.34630 -0.04700
C 	C 	0.42834 0.88836 0.31492 -0.06400
C 	C 	0.55383 0.07576 0.18376 0.00700
C 	C 	0.61238 0.08306 0.18396 -0.05500
C 	C 	0.63456 0.12405 0.15643 -0.03200
C 	C 	0.59804 0.15840 0.12957 -0.05200
C 	C 	0.53930 0.15182 0.13027 -0.05000
C 	C 	0.51721 0.11050 0.15709 -0.10400
H 	H 	0.67995 0.12929 0.15605 0.02900
H 	H 	0.61517 0.19020 0.10837 0.03600
H 	H 	0.51094 0.17866 0.11002 0.02900
H 	H 	0.47182 0.10544 0.15709 0.02900
H 	H 	0.64063 0.05687 0.20519 0.04400
H 	H 	0.56801 0.89726 0.33282 0.03800
H 	H 	0.55302 0.81919 0.38470 0.03300
H 	H 	0.39393 0.90683 0.29455 0.04500
H 	H 	0.37759 0.83095 0.35010 0.03000
H 	H 	0.45694 0.78717 0.39531 0.04400
C 	C 	0.71475 0.45721 0.52962 -0.07600
C 	C 	0.73451 0.48341 0.56707 0.01900
C 	C 	0.79582 0.48570 0.56058 -0.02000
H 	H 	0.81087 0.50720 0.58841 0.03600
C 	C 	0.83757 0.46045 0.51806 -0.07100
C 	C 	0.81798 0.42902 0.48430 0.02300
C 	C 	0.75689 0.42643 0.49177 -0.01900
H 	H 	0.74162 0.40449 0.46441 0.03800
C 	C 	0.85884 0.40443 0.43696 0.00500
C 	C 	0.85337 0.42498 0.38775 -0.05000
C 	C 	0.88400 0.39749 0.34239 -0.03000
C 	C 	0.91956 0.34893 0.34585 -0.05300
C 	C 	0.92561 0.32850 0.39468 -0.03700
C 	C 	0.89492 0.35588 0.44014 -0.07200
C 	C 	0.69148 0.50674 0.61402 0.01200
C 	C 	0.67456 0.56055 0.61903 -0.06300
C 	C 	0.63163 0.58239 0.66236 -0.03000
C 	C 	0.60572 0.55067 0.70089 -0.03900
C 	C 	0.62269 0.49707 0.69617 -0.01200
C 	C 	0.66532 0.47505 0.65277 -0.04300
H 	H 	0.61814 0.62387 0.66590 0.02500
H 	H 	0.57223 0.56763 0.73421 0.04200
H 	H 	0.60247 0.47258 0.72594 0.03300
H 	H 	0.67764 0.43347 0.64899 0.04600
H 	H 	0.69395 0.58532 0.58904 0.03900
H 	H 	0.82458 0.46188 0.38477 0.04800
H 	H 	0.87943 0.41364 0.30471 0.03300
H 	H 	0.89865 0.33920 0.47760 0.05100
H 	H 	0.95326 0.29101 0.39734 0.03600
H 	H 	0.94175 0.32678 0.31085 0.03500
C 	C 	0.23419 0.47801 0.47193 -0.07900
C 	C 	0.27735 0.43531 0.48115 0.02400
C 	C 	0.33702 0.44139 0.47750 -0.03000
H 	H 	0.36892 0.40974 0.48872 0.04400
C 	C 	0.35701 0.48615 0.45548 -0.07000
C 	C 	0.31427 0.52768 0.44267 0.01600
C 	C 	0.25383 0.52263 0.44966 -0.02600
H 	H 	0.22131 0.55498 0.44052 0.04500
C 	C 	0.32972 0.57879 0.42893 0.02500
C 	C 	0.33736 0.59512 0.37675 -0.04200
C 	C 	0.34137 0.64654 0.36479 -0.02000
C 	C 	0.33823 0.68166 0.40472 -0.03500
C 	C 	0.33018 0.66558 0.45674 -0.01900
C 	C 	0.32692 0.61413 0.46882 -0.04700
C 	C 	0.26299 0.38274 0.48666 0.02200
C 	C 	0.24495 0.36058 0.44571 -0.04100
C 	C 	0.23193 0.31077 0.45066 -0.01500
C 	C 	0.23827 0.28238 0.49579 -0.03000
C 	C 	0.25750 0.30378 0.53613 -0.01400
C 	C 	0.26937 0.35402 0.53189 -0.04100
H 	H 	0.21717 0.29409 0.41942 0.03500
H 	H 	0.22854 0.24369 0.49941 0.04000
H 	H 	0.26350 0.28133 0.57053 0.03300
H 	H 	0.28365 0.37053 0.56356 0.04400
H 	H 	0.24087 0.38203 0.41026 0.03900
H 	H 	0.33856 0.56835 0.34575 0.04400
H 	H 	0.34562 0.65941 0.32472 0.02900
H 	H 	0.31979 0.60213 0.50927 0.03700
H 	H 	0.32466 0.69327 0.48783 0.02900
H 	H 	0.34094 0.72152 0.39544 0.03200
C 	C 	0.71275 0.47426 0.95645 -0.07200
C 	C 	0.75319 0.48517 0.91065 0.01800
C 	C 	0.80007 0.51125 0.91460 -0.02700
H 	H 	0.83336 0.51653 0.87990 0.04700
C 	C 	0.80780 0.52526 0.96382 -0.07400
C 	C 	0.76401 0.51801 0.00809 0.01800
C 	C 	0.72524 0.48401 0.00493 -0.04100
H 	H 	0.69901 0.47111 0.04035 0.06100
C 	C 	0.75223 0.55218 0.05432 0.00200
C 	C 	0.79325 0.54748 0.08762 -0.04400
C 	C 	0.78578 0.58427 0.12696 -0.03400
C 	C 	0.73468 0.62312 0.13630 -0.03200
C 	C 	0.69219 0.62659 0.10481 -0.03700
C 	C 	0.70150 0.59193 0.06319 -0.03000
C 	C 	0.74778 0.46805 0.85871 0.01200
C 	C 	0.74937 0.41564 0.84918 -0.05100
C 	C 	0.74732 0.39911 0.79937 -0.02400
C 	C 	0.74391 0.43464 0.75890 -0.04100
C 	C 	0.74174 0.48692 0.76826 -0.02400
C 	C 	0.74346 0.50373 0.81806 -0.04800
H 	H 	0.74893 0.35867 0.79204 0.02900
H 	H 	0.74346 0.42157 0.72019 0.03400
H 	H 	0.73904 0.51437 0.73685 0.03400
H 	H 	0.74189 0.54430 0.82499 0.04300
H 	H 	0.75296 0.38773 0.88012 0.04200
H 	H 	0.83123 0.51589 0.08263 0.03600
H 	H 	0.81993 0.58305 0.14975 0.03800
H 	H 	0.67010 0.59660 0.03719 -0.00200
H 	H 	0.65283 0.65691 0.11183 0.03000
H 	H 	0.72853 0.65106 0.16737 0.03000
C 	C 	0.29767 0.54235 0.00693 -0.10100
C 	C 	0.25578 0.56187 0.97553 0.03200
C 	C 	0.19587 0.55479 0.99087 -0.01400
H 	H 	0.16400 0.56914 0.96641 0.03600
C 	C 	0.17747 0.52799 0.03676 -0.09100
C 	C 	0.21844 0.51103 0.06943 0.02300
C 	C 	0.27680 0.52195 0.05611 -0.01700
H 	H 	0.30840 0.50829 0.08106 0.03500
C 	C 	0.20389 0.47562 0.11318 0.01500
C 	C 	0.20695 0.48879 0.16404 -0.04800
C 	C 	0.20354 0.45202 0.20362 -0.02400
C 	C 	0.19455 0.40275 0.19328 -0.03900
C 	C 	0.19072 0.38961 0.14286 -0.02100
C 	C 	0.19556 0.42580 0.10281 -0.04300
C 	C 	0.27432 0.58844 0.92596 0.01600
C 	C 	0.28475 0.63912 0.92666 -0.03600
C 	C 	0.30116 0.66457 0.87966 -0.01800
C 	C 	0.30628 0.63987 0.83190 -0.03500
C 	C 	0.29509 0.58965 0.83107 -0.01700
C 	C 	0.27927 0.56386 0.87796 -0.03800
H 	H 	0.30967 0.70350 0.88023 0.03200
H 	H 	0.31898 0.65963 0.79554 0.03700
H 	H 	0.29897 0.57062 0.79407 0.03400
H 	H 	0.27106 0.52482 0.87703 0.04100
H 	H 	0.28011 0.65869 0.96350 0.04700
H 	H 	0.21437 0.52678 0.17235 0.04000
H 	H 	0.21018 0.46106 0.24169 0.03500
H 	H 	0.19502 0.41464 0.06340 0.05000
H 	H 	0.18542 0.35100 0.13454 0.03100
H 	H 	0.19188 0.37439 0.22404 0.03300
C 	C 	0.05967 0.46452 0.68933 -0.10000
C 	C 	0.07199 0.42694 0.72703 0.02800
C 	C 	0.05178 0.43935 0.78030 -0.03100
H 	H 	0.06125 0.41059 0.80943 0.01500
C 	C 	0.02029 0.48892 0.79625 -0.07700
C 	C 	0.00688 0.52605 0.75849 0.01500
C 	C 	0.02646 0.51349 0.70535 -0.01600
H 	H 	0.01630 0.54211 0.67626 -0.01400
C 	C 	0.97209 0.57807 0.77403 0.02400
C 	C 	0.90925 0.58572 0.78992 -0.04500
C 	C 	0.87599 0.63562 0.80022 -0.01800
C 	C 	0.90525 0.67796 0.79428 -0.03800
C 	C 	0.96789 0.67039 0.77949 -0.01600
C 	C 	0.00135 0.62059 0.76926 -0.05100
C 	C 	0.10733 0.37507 0.71131 0.01200
C 	C 	0.07967 0.33160 0.71971 -0.04600
C 	C 	0.11341 0.28246 0.70592 -0.02300
C 	C 	0.17498 0.27641 0.68453 -0.03800
C 	C 	0.20300 0.31946 0.67728 -0.02100
C 	C 	0.16931 0.36875 0.69038 -0.04100
H 	H 	0.09191 0.24905 0.71224 0.02800
H 	H 	0.20105 0.23837 0.67388 0.03400
H 	H 	0.25088 0.31462 0.66172 0.03100
H 	H 	0.19133 0.40192 0.68463 0.04500
H 	H 	0.03226 0.33586 0.73728 0.03600
H 	H 	0.88623 0.55317 0.79343 0.04500
H 	H 	0.82751 0.64151 0.81229 0.03100
H 	H 	0.04983 0.61506 0.75702 0.04000
H 	H 	0.99050 0.70314 0.77554 0.03100
H 	H 	0.87938 0.71664 0.80109 0.03400
C 	C 	0.96982 0.53065 0.32057 -0.08400
C 	C 	0.02461 0.52492 0.28351 0.01400
C 	C 	0.02501 0.51761 0.23059 -0.02800
H 	H 	0.06715 0.51323 0.20214 0.05000
C 	C 	0.97120 0.51822 0.21374 -0.07200
C 	C 	0.91595 0.52513 0.25073 0.01400
C 	C 	0.91602 0.53189 0.30375 -0.01800
H 	H 	0.87431 0.53492 0.33259 0.04100
C 	C 	0.85809 0.52203 0.23545 0.01400
C 	C 	0.80523 0.55630 0.25819 -0.05300
C 	C 	0.74904 0.54661 0.25390 -0.02300
C 	C 	0.74515 0.50437 0.22468 -0.04100
C 	C 	0.79746 0.47151 0.19996 -0.02200
C 	C 	0.85375 0.48028 0.20513 -0.05500
C 	C 	0.08147 0.52860 0.29938 0.00600
C 	C 	0.10931 0.57119 0.28422 -0.04200
C 	C 	0.16259 0.57514 0.29975 -0.02800
C 	C 	0.18876 0.53632 0.32978 -0.03400
C 	C 	0.16195 0.49324 0.34401 -0.03700
C 	C 	0.10890 0.48890 0.32815 -0.04800
H 	H 	0.18377 0.60818 0.28826 0.03000
H 	H 	0.23040 0.53914 0.34117 0.03400
H 	H 	0.18295 0.46273 0.36635 0.02600
H 	H 	0.08925 0.45476 0.33806 -0.00400
H 	H 	0.08979 0.60104 0.26028 0.03700
H 	H 	0.80769 0.58953 0.28042 0.03800
H 	H 	0.70852 0.57171 0.27352 0.03200
H 	H 	0.89373 0.45455 0.18590 0.04600
H 	H 	0.79445 0.43912 0.17683 0.02900
H 	H 	0.70168 0.49750 0.22061 0.03900
C 	C 	0.96486 0.79873 0.54620 -0.07900
C 	C 	0.96105 0.76607 0.59010 0.02400
C 	C 	0.96690 0.71262 0.58309 -0.02700
H 	H 	0.96638 0.68741 0.61668 0.02500
C 	C 	0.97461 0.69140 0.53296 -0.07200
C 	C 	0.97530 0.72441 0.48941 0.01900
C 	C 	0.97206 0.77750 0.49617 -0.02300
H 	H 	0.97293 0.80268 0.46253 0.01000
C 	C 	0.97842 0.70402 0.43665 0.01800
C 	C 	0.03091 0.70224 0.39790 -0.05100
C 	C 	0.03251 0.68599 0.34712 -0.02200
C 	C 	0.98216 0.67068 0.33503 -0.03100
C 	C 	0.92985 0.67222 0.37354 -0.01400
C 	C 	0.92766 0.68934 0.42414 -0.04200
C 	C 	0.94881 0.78738 0.64365 0.01500
C 	C 	0.99664 0.79148 0.66763 -0.04000
C 	C 	0.98516 0.80663 0.72014 -0.01800
C 	C 	0.92605 0.81732 0.74892 -0.03900
C 	C 	0.87819 0.81458 0.72480 -0.02200
C 	C 	0.88944 0.79954 0.67227 -0.04700
H 	H 	0.02213 0.80908 0.73882 0.02800
H 	H 	0.91744 0.82685 0.79009 0.03100
H 	H 	0.83245 0.82327 0.74703 0.02800
H 	H 	0.85223 0.79644 0.65408 0.04200
H 	H 	0.04261 0.78210 0.64586 0.04300
H 	H 	0.07010 0.71399 0.40701 0.04100
H 	H 	0.07267 0.68551 0.31708 0.02900
H 	H 	0.88669 0.69113 0.45361 0.04800
H 	H 	0.89100 0.66021 0.36415 0.03400
H 	H 	0.98365 0.65769 0.29581 0.03600
C 	C 	0.99313 0.19022 0.49741 -0.07500
C 	C 	0.04655 0.19795 0.46301 0.01800
C 	C 	0.06785 0.24406 0.46538 -0.01800
H 	H 	0.10822 0.25011 0.43804 0.04300
C 	C 	0.03569 0.28375 0.50019 -0.07700
C 	C 	0.98311 0.27561 0.53604 0.01500
C 	C 	0.96167 0.22932 0.53344 -0.02700
H 	H 	0.92241 0.22243 0.56172 0.01900
C 	C 	0.95075 0.31464 0.57715 0.00700
C 	C 	0.98137 0.33202 0.61233 -0.05000
C 	C 	0.95110 0.36986 0.64982 -0.02700
C 	C 	0.88993 0.38927 0.65354 -0.04300
C 	C 	0.85837 0.36980 0.62093 -0.02100
C 	C 	0.88829 0.33193 0.58349 -0.04800
C 	C 	0.08094 0.15796 0.42418 0.01400
C 	C 	0.05620 0.14572 0.38245 -0.05000
C 	C 	0.09180 0.11376 0.34159 -0.02100
C 	C 	0.15220 0.09436 0.34193 -0.04100
C 	C 	0.17686 0.10603 0.38361 -0.02200
C 	C 	0.14117 0.13702 0.42510 -0.04700
H 	H 	0.07274 0.10423 0.30952 0.02800
H 	H 	0.17974 0.06992 0.31012 0.03600
H 	H 	0.22371 0.09122 0.38366 0.04000
H 	H 	0.16068 0.14592 0.45724 0.04700
H 	H 	0.00995 0.16184 0.38115 0.04900
H 	H 	0.02837 0.31611 0.61079 0.05600
H 	H 	0.97500 0.38416 0.67600 0.04100
H 	H 	0.86280 0.31543 0.56016 0.04000
H 	H 	0.81060 0.38379 0.62489 0.03300
H 	H 	0.86680 0.41888 0.68223 0.03500
C 	C 	0.62954 0.02897 0.51699 -0.06200
C 	C 	0.66443 0.05319 0.47600 0.00600
C 	C 	0.72310 0.05799 0.47904 -0.01700
H 	H 	0.75141 0.07327 0.44614 0.04500
C 	C 	0.74717 0.03839 0.52222 -0.08500
C 	C 	0.70958 0.01932 0.56538 0.03100
C 	C 	0.65175 0.01374 0.56193 -0.04500
H 	H 	0.62368 0.99775 0.59461 0.06600
C 	C 	0.73267 0.00059 0.61247 -0.00700
C 	C 	0.75373 0.03425 0.64168 -0.03900
C 	C 	0.78519 0.01482 0.68028 -0.05000
C 	C 	0.79422 0.96200 0.69097 -0.02000
C 	C 	0.77066 0.92871 0.66380 -0.03400
C 	C 	0.74021 0.94780 0.62440 -0.02300
C 	C 	0.64090 0.07165 0.42898 0.02100
C 	C 	0.62647 0.12476 0.41984 -0.05100
C 	C 	0.60223 0.14213 0.37638 -0.01700
C 	C 	0.59308 0.10667 0.34154 -0.03900
C 	C 	0.60813 0.05374 0.35009 -0.01800
C 	C 	0.63201 0.03616 0.39369 -0.07100
H 	H 	0.59071 0.18309 0.36962 0.03500
H 	H 	0.57459 0.12020 0.30779 0.04200
H 	H 	0.60128 0.02633 0.32296 0.02900
H 	H 	0.64324 0.99510 0.40024 0.04700
H 	H 	0.63409 0.15247 0.44625 0.04400
H 	H 	0.74800 0.07504 0.63290 0.03200
H 	H 	0.80381 0.04056 0.70090 0.03900
H 	H 	0.72476 0.92141 0.60167 0.03800
H 	H 	0.77715 0.88794 0.67245 0.03600
H 	H 	0.82012 0.94676 0.71973 0.04000
C 	C 	0.13570 0.01063 0.54306 -0.09300
C 	C 	0.16111 0.99839 0.48971 0.05200
C 	C 	0.21728 0.01083 0.46681 -0.05300
H 	H 	0.23762 0.99932 0.42660 0.05300
C 	C 	0.25074 0.03183 0.49692 -0.05800
C 	C 	0.22370 0.04701 0.54914 0.00800
C 	C 	0.16692 0.03606 0.57176 -0.01000
H 	H 	0.14750 0.04664 0.61230 0.04200
C 	C 	0.25565 0.07189 0.58161 0.00800
C 	C 	0.26249 0.12337 0.57276 -0.05100
C 	C 	0.29131 0.14725 0.60464 -0.01900
C 	C 	0.31513 0.11936 0.64419 -0.07000
C 	C 	0.30681 0.06854 0.65411 -0.03800
C 	C 	0.27598 0.04515 0.62365 -0.06000
C 	C 	0.13207 0.96958 0.45803 0.00100
C 	C 	0.10060 0.99582 0.42190 -0.04700
C 	C 	0.08600 0.96835 0.38296 -0.03800
C 	C 	0.09875 0.91443 0.38236 -0.04500
C 	C 	0.12732 0.88798 0.42004 -0.03400
C 	C 	0.14479 0.91543 0.45736 -0.03800
H 	H 	0.06512 0.98885 0.35314 0.04300
H 	H 	0.08665 0.89317 0.35270 0.02900
H 	H 	0.13703 0.84624 0.41965 0.03000
H 	H 	0.16918 0.89479 0.48504 0.04500
H 	H 	0.08825 0.03737 0.42363 0.03200
H 	H 	0.24525 0.14485 0.54149 0.04800
H 	H 	0.29613 0.18708 0.59811 0.03600
H 	H 	0.26927 0.00592 0.63179 0.03900
H 	H 	0.32328 0.04759 0.68593 0.02500
H 	H 	0.33851 0.13761 0.66810 0.02200
C 	C 	0.02095 0.70243 0.97020 -0.07500
C 	C 	0.96620 0.73799 0.98142 -0.00300
C 	C 	0.96564 0.78817 0.99774 0.01400
H 	H 	0.92357 0.81561 0.00555 0.02500
C 	C 	0.01915 0.80370 0.00287 -0.11900
C 	C 	0.07371 0.76747 0.99305 0.04800
C 	C 	0.07460 0.71872 0.97282 -0.04000
H 	H 	0.11660 0.69117 0.96462 0.04700
C 	C 	0.12873 0.77786 0.00842 -0.02000
C 	C 	0.18387 0.76973 0.97208 -0.03500
C 	C 	0.23691 0.77430 0.98772 -0.01500
C 	C 	0.23555 0.78601 0.03975 -0.04900
C 	C 	0.18125 0.79265 0.07640 -0.02100
C 	C 	0.12815 0.78753 0.06113 -0.02900
C 	C 	0.90901 0.72255 0.97781 0.02900
C 	C 	0.88725 0.73054 0.93141 -0.04000
C 	C 	0.83606 0.71160 0.92645 -0.02100
C 	C 	0.80682 0.68442 0.96745 -0.01700
C 	C 	0.82752 0.67756 0.01412 -0.03600
C 	C 	0.87816 0.69695 0.01960 -0.05600
H 	H 	0.81898 0.71803 0.89094 0.03100
H 	H 	0.76754 0.66937 0.96335 0.03500
H 	H 	0.80446 0.65720 0.04594 0.03400
H 	H 	0.89443 0.69080 0.05567 0.00800
H 	H 	0.91045 0.75066 0.89906 0.04100
H 	H 	0.18557 0.75977 0.93182 0.03200
H 	H 	0.27910 0.76867 0.95949 0.03000
H 	H 	0.08673 0.79063 0.09022 0.04900
H 	H 	0.18045 0.80117 0.11676 0.03700
H 	H 	0.27665 0.78961 0.05174 0.03900
C 	C 	0.01989 0.30954 0.02945 -0.09100
C 	C 	0.00331 0.28444 0.07705 0.02100
C 	C 	0.98889 0.23521 0.07687 -0.02200
H 	H 	0.97608 0.21606 0.11371 0.02100
C 	C 	0.99501 0.20891 0.02963 -0.08100
C 	C 	0.01360 0.23353 0.98190 0.02600
C 	C 	0.02911 0.28234 0.98239 -0.01300
H 	H 	0.04220 0.30154 0.94563 0.01000
C 	C 	0.01428 0.20993 0.93114 0.01500
C 	C 	0.95996 0.20501 0.91752 -0.03900
C 	C 	0.95974 0.18946 0.86689 -0.01500
C 	C 	0.01318 0.18063 0.82924 -0.03400
C 	C 	0.06718 0.18613 0.84245 -0.02000
C 	C 	0.06809 0.19950 0.89352 -0.04900
C 	C 	0.99762 0.31068 0.12728 0.01800
C 	C 	0.94080 0.32552 0.15971 -0.04900
C 	C 	0.93451 0.35515 0.20447 -0.02500
C 	C 	0.98454 0.37150 0.21612 -0.03300
C 	C 	0.04159 0.35464 0.18543 -0.01900
C 	C 	0.04840 0.32383 0.14125 -0.04200
H 	H 	0.89051 0.36682 0.22909 0.02900
H 	H 	0.97918 0.39717 0.24894 0.03400
H 	H 	0.08035 0.36574 0.19572 0.03400
H 	H 	0.09266 0.31167 0.11693 0.04600
H 	H 	0.90142 0.31514 0.14954 0.03900
H 	H 	0.91802 0.21413 0.94584 0.05100
H 	H 	0.91798 0.18542 0.85649 0.03200
H 	H 	0.11014 0.20395 0.90330 0.04100
H 	H 	0.10794 0.18177 0.81281 0.03400
H 	H 	0.01256 0.17036 0.78964 0.03500
C 	C 	0.72651 0.97802 0.97634 -0.08700
C 	C 	0.76950 0.93861 0.99239 0.05200
C 	C 	0.82881 0.94665 0.98820 -0.04700
H 	H 	0.86265 0.91584 0.99802 0.04800
C 	C 	0.84385 0.99495 0.97315 -0.03900
C 	C 	0.80010 0.03438 0.95946 0.00100
C 	C 	0.74559 0.02271 0.95360 -0.02100
H 	H 	0.71443 0.05183 0.93794 0.04600
C 	C 	0.80548 0.08919 0.96202 0.03600
C 	C 	0.80850 0.11940 0.91681 -0.05200
C 	C 	0.80309 0.17289 0.92058 -0.02100
C 	C 	0.79560 0.19638 0.96933 -0.02900
C 	C 	0.79365 0.16640 0.01441 -0.02600
C 	C 	0.79800 0.11300 0.01094 -0.05300
C 	C 	0.75351 0.88942 0.01365 -0.02000
C 	C 	0.74256 0.85291 0.98060 0.00800
C 	C 	0.72540 0.80719 0.00139 -0.05600
C 	C 	0.72069 0.79713 0.05475 -0.01000
C 	C 	0.73255 0.83301 0.08761 -0.03400
C 	C 	0.74887 0.87913 0.06721 -0.02000
H 	H 	0.71577 0.77954 0.97624 0.05300
H 	H 	0.70786 0.76152 0.07062 0.03000
H 	H 	0.72883 0.82519 0.12893 0.03700
H 	H 	0.75735 0.90703 0.09300 0.03800
H 	H 	0.74627 0.86038 0.93917 0.03200
H 	H 	0.81313 0.10170 0.87910 0.04100
H 	H 	0.80399 0.19622 0.88576 0.02700
H 	H 	0.79428 0.09025 0.04628 0.04100
H 	H 	0.78776 0.18464 0.05216 0.02900
H 	H 	0.79139 0.23779 0.97215 0.03500
C 	C 	0.20929 0.97517 0.04117 -0.09800
C 	C 	0.24240 0.97456 0.98926 0.03500
C 	C 	0.29669 0.99290 0.97899 -0.00400
H 	H 	0.32249 0.99228 0.93926 0.04300
C 	C 	0.32190 0.00557 0.01997 -0.09600
C 	C 	0.29099 0.00208 0.07200 0.01400
C 	C 	0.23592 0.98517 0.08234 -0.00500
H 	H 	0.21108 0.98451 0.12239 0.03900
C 	C 	0.31675 0.01542 0.11591 0.00200
C 	C 	0.31890 0.06704 0.12539 -0.05400
C 	C 	0.34486 0.07946 0.16599 -0.02500
C 	C 	0.36882 0.04050 0.19712 -0.05600
C 	C 	0.36752 0.98896 0.18735 -0.01300
C 	C 	0.34139 0.97635 0.14692 -0.04500
C 	C 	0.22135 0.95360 0.94545 -0.00300
C 	C 	0.22973 0.97695 0.89596 -0.03600
C 	C 	0.22058 0.95207 0.85269 -0.02600
C 	C 	0.19478 0.90794 0.85957 -0.04400
C 	C 	0.18157 0.88681 0.90929 -0.04800
C 	C 	0.19786 0.90773 0.95162 -0.05400
H 	H 	0.23297 0.96732 0.81388 0.03600
H 	H 	0.18458 0.89034 0.82645 0.02800
H 	H 	0.15857 0.85441 0.91496 0.01600
H 	H 	0.19137 0.88883 0.98915 0.05700
H 	H 	0.24432 0.01375 0.89089 0.02800
H 	H 	0.30065 0.09740 0.10126 0.04300
H 	H 	0.34640 0.11930 0.17334 0.02900
H 	H 	0.34076 0.93632 0.13939 0.04500
H 	H 	0.38668 0.95882 0.21112 0.03400
H 	H 	0.38807 0.05028 0.22896 0.04500
C 	C 	0.01000 0.04304 0.81901 -0.08500
C 	C 	0.04989 0.03388 0.77020 0.02800
C 	C 	0.03360 0.00728 0.73127 -0.05100
H 	H 	0.06576 0.99692 0.69500 0.06600
C 	C 	0.97361 0.00143 0.73569 -0.06400
C 	C 	0.93248 0.01470 0.78344 -0.00200
C 	C 	0.94962 0.04003 0.82257 -0.01600
H 	H 	0.91754 0.05114 0.85872 0.05100
C 	C 	0.87606 0.99425 0.79647 0.03900
C 	C 	0.82059 0.02793 0.80137 -0.06400
C 	C 	0.76713 0.01025 0.82187 -0.03200
C 	C 	0.76883 0.95924 0.83838 -0.02600
C 	C 	0.82395 0.92565 0.83406 -0.02200
C 	C 	0.87751 0.94303 0.81313 -0.05000
C 	C 	0.09937 0.06353 0.75519 0.00700
C 	C 	0.09817 0.09958 0.71450 -0.04500
C 	C 	0.14187 0.13070 0.70306 -0.02600
C 	C 	0.18646 0.12653 0.73244 -0.03600
C 	C 	0.18950 0.08926 0.77134 -0.02400
C 	C 	0.14605 0.05789 0.78281 -0.04800
H 	H 	0.14057 0.15865 0.67198 0.03100
H 	H 	0.21792 0.15283 0.72580 0.03600
H 	H 	0.22468 0.08554 0.79352 0.03000
H 	H 	0.14794 0.03023 0.81375 0.04700
H 	H 	0.06257 0.10432 0.69268 0.02700
H 	H 	0.81897 0.06785 0.78979 0.04000
H 	H 	0.72445 0.03628 0.82584 0.03200
H 	H 	0.92019 0.91736 0.81165 0.04100
H 	H 	0.82524 0.88639 0.84765 0.03000
H 	H 	0.72749 0.94607 0.85548 0.03300
C 	C 	0.94398 0.99510 0.33167 -0.05300
C 	C 	0.93109 0.03609 0.29753 0.00700
C 	C 	0.94973 0.02812 0.24338 -0.03000
H 	H 	0.94159 0.06000 0.21707 0.00600
C 	C 	0.98091 0.97976 0.22298 -0.07900
C 	C 	0.98976 0.93793 0.25711 0.03200
C 	C 	0.97054 0.94581 0.31122 -0.03800
H 	H 	0.97798 0.91381 0.33754 0.01900
C 	C 	0.02087 0.88624 0.23693 0.00800
C 	C 	0.08198 0.86987 0.23759 -0.04100
C 	C 	0.11000 0.81917 0.22338 -0.02500
C 	C 	0.07736 0.78487 0.20793 -0.03600
C 	C 	0.01671 0.80127 0.20642 -0.03100
C 	C 	0.98835 0.85181 0.22109 -0.03100
C 	C 	0.89748 0.08720 0.31804 0.02200
C 	C 	0.92647 0.12989 0.31309 -0.04800
C 	C 	0.89510 0.17788 0.33367 -0.01900
C 	C 	0.83449 0.18366 0.35837 -0.03600
C 	C 	0.80504 0.14153 0.36233 -0.01700
C 	C 	0.83639 0.09332 0.34230 -0.04400
H 	H 	0.91773 0.21062 0.33033 0.03000
H 	H 	0.81025 0.22086 0.37418 0.03800
H 	H 	0.75791 0.14626 0.38085 0.03300
H 	H 	0.81336 0.06079 0.34572 0.04600
H 	H 	0.97308 0.12589 0.29323 0.03500
H 	H 	0.10744 0.89620 0.24975 0.04200
H 	H 	0.15701 0.80647 0.22431 0.03100
H 	H 	0.94110 0.86406 0.22065 0.04000
H 	H 	0.99160 0.77476 0.19418 0.03000
H 	H 	0.09918 0.74568 0.19677 0.03000
