data_crystal

_cell_length_a 19.42358
_cell_length_b 16.77909
_cell_length_c 37.12151
_cell_angle_alpha 88.29010
_cell_angle_beta  88.42648
_cell_angle_gamma 107.45811

_symmetry_space_group_name_	'P 1'
_symmetry_space_group_name_H-M	'P 1'

loop_
_symmetry_equiv_pos_as_xyz
  x,y,z

loop_
_atom_site_label
_atom_site_type_symbol
_atom_site_fract_x
_atom_site_fract_y
_atom_site_fract_z
_atom_site_charge
Zn	Zn	0.57430 0.33060 0.89953 1.22300
Zn	Zn	0.70911 0.49303 0.92608 1.20500
C 	C 	0.76253 0.20507 0.85360 0.30100
Zn	Zn	0.74082 0.35634 0.88393 1.22100
Zn	Zn	0.60275 0.18878 0.86009 1.19200
H 	H 	0.68214 0.33852 0.94683 0.18100
C 	C 	0.73973 0.50878 0.84595 0.29800
O 	O 	0.49445 0.15113 0.86500 -0.46100
O 	O 	0.47772 0.27971 0.87005 -0.39600
O 	O 	0.67619 0.36827 0.92425 -0.77700
O 	O 	0.62233 0.52376 0.93713 -0.45600
O 	O 	0.53441 0.24327 0.93761 -0.43900
O 	O 	0.54356 0.43060 0.90292 -0.43800
O 	O 	0.60638 0.16668 0.91835 -0.42000
O 	O 	0.81300 0.53419 0.91463 -0.45900
H 	H 	0.63186 0.33950 0.83772 0.17400
O 	O 	0.83590 0.40965 0.91417 -0.39400
O 	O 	0.63812 0.31194 0.86083 -0.79100
O 	O 	0.69447 0.15733 0.85278 -0.45100
O 	O 	0.77273 0.45068 0.84742 -0.43000
O 	O 	0.78160 0.26277 0.87777 -0.43000
O 	O 	0.68817 0.50599 0.86983 -0.42000
C 	C 	0.45264 0.20007 0.86260 0.30100
C 	C 	0.55679 0.47729 0.93115 0.31800
C 	C 	0.55600 0.17649 0.94088 0.30100
C 	C 	0.85389 0.48813 0.92331 0.30000
Zn	Zn	0.65427 0.43180 0.54858 1.22300
Zn	Zn	0.50262 0.30759 0.51004 1.20900
C 	C 	0.70207 0.16860 0.59279 0.29800
Zn	Zn	0.58824 0.23474 0.56299 1.22200
Zn	Zn	0.75599 0.35452 0.58563 1.19300
H 	H 	0.63038 0.30224 0.50396 0.18300
C 	C 	0.44482 0.22145 0.58816 0.32100
O 	O 	0.81235 0.47656 0.58279 -0.46000
O 	O 	0.71742 0.53075 0.57903 -0.39700
O 	O 	0.60220 0.31785 0.52364 -0.79000
O 	O 	0.48556 0.40091 0.53454 -0.46500
O 	O 	0.73203 0.46303 0.51115 -0.44000
O 	O 	0.59069 0.50250 0.54202 -0.43100
O 	O 	0.76661 0.35085 0.52725 -0.42500
O 	O 	0.48136 0.20379 0.48626 -0.45800
H 	H 	0.63401 0.35965 0.61026 0.17500
O 	O 	0.51557 0.13269 0.53325 -0.38000
O 	O 	0.65193 0.34590 0.58673 -0.78100
O 	O 	0.75722 0.23589 0.58536 -0.44700
O 	O 	0.51042 0.22884 0.59822 -0.45600
O 	O 	0.64312 0.15373 0.57387 -0.42700
O 	O 	0.43213 0.23430 0.55428 -0.39700
C 	C 	0.78502 0.53921 0.58654 0.30100
C 	C 	0.52897 0.47530 0.52627 0.29800
C 	C 	0.77672 0.41927 0.50709 0.30800
C 	C 	0.47855 0.13354 0.50360 0.31100
Zn	Zn	0.95669 0.91893 0.70755 1.22300
Zn	Zn	0.05289 0.93442 0.78277 1.19400
C 	C 	0.16649 0.11439 0.65888 0.28700
Zn	Zn	0.08272 0.07414 0.72637 1.21900
Zn	Zn	0.01173 0.04008 0.64349 1.19600
H 	H 	0.10005 0.93348 0.71764 0.17700
C 	C 	0.97334 0.07253 0.78323 0.29700
O 	O 	0.91202 0.01162 0.62898 -0.44900
O 	O 	0.85981 0.91579 0.67619 -0.38100
O 	O 	0.06204 0.95242 0.72980 -0.79000
O 	O 	0.97689 0.82527 0.78588 -0.46300
O 	O 	0.98140 0.83791 0.67802 -0.45600
O 	O 	0.89521 0.85932 0.74930 -0.43100
O 	O 	0.00032 0.91201 0.62497 -0.39400
O 	O 	0.12304 0.02768 0.80746 -0.45600
H 	H 	0.95487 0.06329 0.70243 0.17300
O 	O 	0.17883 0.10204 0.75691 -0.40000
O 	O 	0.99154 0.03529 0.69621 -0.80800
O 	O 	0.11900 0.05805 0.64065 -0.45400
O 	O 	0.02897 0.12092 0.76329 -0.43800
O 	O 	0.14585 0.14603 0.68798 -0.44700
O 	O 	0.96793 0.99344 0.79033 -0.41500
C 	C 	0.85483 0.96868 0.64911 0.28300
C 	C 	0.91383 0.80496 0.77057 0.31700
C 	C 	0.97375 0.84072 0.64342 0.31800
C 	C 	0.18099 0.07865 0.79086 0.29800
Zn	Zn	0.33046 0.69808 0.38469 1.22400
Zn	Zn	0.20076 0.55040 0.43347 1.19900
C 	C 	0.13813 0.81247 0.34100 0.30200
Zn	Zn	0.16456 0.67466 0.38255 1.22200
Zn	Zn	0.29469 0.82523 0.33584 1.19400
H 	H 	0.23465 0.71072 0.43784 0.18000
C 	C 	0.15597 0.51260 0.35458 0.29300
O 	O 	0.40155 0.85951 0.33117 -0.46800
O 	O 	0.41811 0.73343 0.34589 -0.40000
O 	O 	0.23580 0.67217 0.41834 -0.78600
O 	O 	0.29073 0.52260 0.44229 -0.44600
O 	O 	0.37801 0.79763 0.41092 -0.44300
O 	O 	0.36325 0.60310 0.39766 -0.43800
O 	O 	0.30279 0.86962 0.39129 -0.41400
O 	O 	0.09529 0.51233 0.43302 -0.46100
H 	H 	0.26001 0.66853 0.32862 0.17400
O 	O 	0.07779 0.63848 0.42217 -0.40100
O 	O 	0.25943 0.70441 0.34925 -0.79500
O 	O 	0.20402 0.85809 0.33058 -0.44400
O 	O 	0.12327 0.57093 0.35685 -0.43900
O 	O 	0.12710 0.76927 0.37189 -0.43700
O 	O 	0.20276 0.50659 0.37888 -0.40600
C 	C 	0.44332 0.81034 0.33217 0.30400
C 	C 	0.35385 0.57269 0.43104 0.30100
C 	C 	0.35282 0.86145 0.41337 0.29800
C 	C 	0.05761 0.56397 0.43831 0.30100
Zn	Zn	0.19860 0.72453 0.06698 1.22000
Zn	Zn	0.33914 0.85241 0.10858 1.19400
C 	C 	0.36418 0.57440 0.02458 0.30200
Zn	Zn	0.36031 0.72402 0.05912 1.22300
Zn	Zn	0.21693 0.57670 0.02713 1.20200
H 	H 	0.28957 0.69485 0.11807 0.18400
C 	C 	0.38665 0.89203 0.02846 0.30100
O 	O 	0.11377 0.55979 0.03017 -0.46400
O 	O 	0.11085 0.69426 0.02951 -0.38500
O 	O 	0.29293 0.73454 0.09735 -0.78800
O 	O 	0.25093 0.88261 0.12080 -0.47500
O 	O 	0.13956 0.63220 0.10013 -0.42700
O 	O 	0.18269 0.83611 0.07144 -0.43200
O 	O 	0.21103 0.55253 0.08471 -0.41500
O 	O 	0.44707 0.88481 0.10399 -0.46200
H 	H 	0.26636 0.73092 0.00763 0.17800
O 	O 	0.45051 0.75338 0.09312 -0.40600
O 	O 	0.26411 0.69890 0.03068 -0.78500
O 	O 	0.29663 0.52811 0.02543 -0.45500
O 	O 	0.40724 0.82404 0.02777 -0.43800
O 	O 	0.38849 0.62437 0.05084 -0.43500
O 	O 	0.33877 0.89880 0.05314 -0.42600
C 	C 	0.08764 0.61762 0.01757 0.29100
C 	C 	0.19911 0.88525 0.09919 0.32800
C 	C 	0.15567 0.56164 0.10338 0.30000
C 	C 	0.48313 0.83016 0.10197 0.30600
Zn	Zn	0.97692 0.14534 0.21588 1.22600
Zn	Zn	0.87614 0.09931 0.29227 1.19900
C 	C 	0.76647 0.96058 0.15582 0.28900
Zn	Zn	0.83890 0.99397 0.22588 1.22200
Zn	Zn	0.91966 0.06688 0.14390 1.19500
H 	H 	0.83726 0.14384 0.23070 0.18300
C 	C 	0.93096 0.94632 0.27812 0.29000
O 	O 	0.02023 0.12531 0.12893 -0.45600
O 	O 	0.07462 0.15637 0.18304 -0.37600
O 	O 	0.86996 0.11229 0.23896 -0.78000
O 	O 	0.96122 0.19516 0.30294 -0.44700
O 	O 	0.96399 0.24683 0.19569 -0.44900
O 	O 	0.03664 0.17419 0.25816 -0.43100
O 	O 	0.91170 0.19531 0.14425 -0.39600
O 	O 	0.79812 0.99895 0.31069 -0.46100
H 	H 	0.96250 0.00067 0.19828 0.17700
O 	O 	0.74236 0.96585 0.25753 -0.41300
O 	O 	0.93301 0.03889 0.19526 -0.80600
O 	O 	0.81094 0.03049 0.14092 -0.44800
O 	O 	0.87740 0.91832 0.25625 -0.43400
O 	O 	0.77719 0.93345 0.18826 -0.43900
O 	O 	0.94924 0.02406 0.28828 -0.40400
C 	C 	0.07309 0.12539 0.15037 0.28400
C 	C 	0.02039 0.22249 0.28232 0.30900
C 	C 	0.95590 0.25643 0.16139 0.31700
C 	C 	0.73983 0.96516 0.29280 0.31000
C 	C 	0.00830 0.32793 0.14157 -0.08600
C 	C 	0.98568 0.38005 0.11701 0.02700
C 	C 	0.03244 0.45998 0.10713 -0.02500
H 	H 	0.01518 0.49977 0.08810 0.05400
C 	C 	0.10261 0.48692 0.12021 -0.07600
C 	C 	0.12542 0.43420 0.14417 0.01900
C 	C 	0.07919 0.35454 0.15371 -0.01400
H 	H 	0.09685 0.31521 0.17274 0.04700
C 	C 	0.19804 0.46186 0.15944 0.01900
C 	C 	0.24686 0.41626 0.15344 -0.04600
C 	C 	0.31641 0.44400 0.16658 -0.01700
C 	C 	0.33725 0.51677 0.18612 -0.04100
C 	C 	0.28816 0.56118 0.19308 -0.02500
C 	C 	0.21856 0.53379 0.17988 -0.05300
C 	C 	0.91551 0.35007 0.09976 0.01600
C 	C 	0.90603 0.29150 0.07268 -0.03900
C 	C 	0.84098 0.26662 0.05485 -0.02300
C 	C 	0.78565 0.30083 0.06361 -0.03600
C 	C 	0.79518 0.35998 0.09026 -0.02000
C 	C 	0.86001 0.38475 0.10831 -0.04500
H 	H 	0.83366 0.22126 0.03405 0.03100
H 	H 	0.73581 0.28235 0.04941 0.03100
H 	H 	0.75263 0.38724 0.09667 0.03100
H 	H 	0.86750 0.43157 0.12851 0.03800
H 	H 	0.94909 0.26559 0.06541 0.04100
H 	H 	0.23069 0.35928 0.13878 0.05200
H 	H 	0.35407 0.40896 0.16168 0.03000
H 	H 	0.18094 0.56879 0.18513 0.03700
H 	H 	0.30412 0.61685 0.20864 0.01900
H 	H 	0.39136 0.53867 0.19590 0.03200
C 	C 	0.55952 0.85378 0.11168 -0.08300
C 	C 	0.61368 0.91351 0.09049 0.02300
C 	C 	0.68199 0.94850 0.10497 -0.02500
H 	H 	0.72242 0.99833 0.09013 0.03700
C 	C 	0.69949 0.91555 0.13742 -0.08000
C 	C 	0.65065 0.84132 0.15313 0.02100
C 	C 	0.57904 0.81585 0.14225 -0.02200
H 	H 	0.53954 0.76381 0.15643 0.03400
C 	C 	0.67709 0.78247 0.17517 0.02000
C 	C 	0.72410 0.74273 0.15952 -0.04900
C 	C 	0.74897 0.68687 0.18027 -0.02300
C 	C 	0.72783 0.67116 0.21671 -0.03700
C 	C 	0.68144 0.71089 0.23245 -0.01900
C 	C 	0.65571 0.76620 0.21175 -0.04300
C 	C 	0.60404 0.92889 0.05157 0.00900
C 	C 	0.58028 0.86110 0.02887 -0.04400
C 	C 	0.58334 0.87478 0.99146 -0.01500
C 	C 	0.61182 0.95568 0.97637 -0.04400
C 	C 	0.63507 0.02342 0.99870 -0.01100
C 	C 	0.63020 0.01037 0.03617 -0.04100
H 	H 	0.56465 0.82243 0.97416 0.03000
H 	H 	0.61530 0.96599 0.94737 0.03800
H 	H 	0.65711 0.08611 0.98697 0.03700
H 	H 	0.65024 0.06295 0.05319 0.03900
H 	H 	0.56126 0.79786 0.04012 0.04900
H 	H 	0.74093 0.75482 0.13131 0.03500
H 	H 	0.78442 0.65551 0.16807 0.02900
H 	H 	0.62017 0.79723 0.22420 0.04700
H 	H 	0.66535 0.69856 0.26065 0.03600
H 	H 	0.74733 0.62809 0.23276 0.03600
C 	C 	0.15774 0.94273 0.10729 -0.10000
C 	C 	0.10706 0.92294 0.13645 0.03100
C 	C 	0.09322 0.98735 0.15569 -0.04600
H 	H 	0.05935 0.97198 0.17998 0.01700
C 	C 	0.11705 0.07018 0.14174 -0.07600
C 	C 	0.16518 0.08962 0.11131 0.01400
C 	C 	0.18493 0.02576 0.09424 -0.00500
H 	H 	0.22500 0.04155 0.07213 0.03600
C 	C 	0.20144 0.17712 0.09947 0.01900
C 	C 	0.27362 0.21442 0.10800 -0.05300
C 	C 	0.31330 0.29031 0.09110 -0.01800
C 	C 	0.28086 0.33017 0.06608 -0.04700
C 	C 	0.20811 0.29501 0.05857 -0.01300
C 	C 	0.16850 0.21816 0.07494 -0.05100
C 	C 	0.06103 0.83577 0.14360 0.00100
C 	C 	0.99030 0.81033 0.13135 -0.04300
C 	C 	0.94780 0.72699 0.13635 -0.02700
C 	C 	0.97529 0.66898 0.15399 -0.03200
C 	C 	0.04544 0.69417 0.16659 -0.02000
C 	C 	0.08835 0.77735 0.16137 -0.04500
H 	H 	0.89381 0.70722 0.12625 0.02900
H 	H 	0.94236 0.60448 0.15771 0.03400
H 	H 	0.06688 0.64903 0.17999 0.03600
H 	H 	0.14313 0.79586 0.17028 0.04600
H 	H 	0.96872 0.85486 0.11753 0.01900
H 	H 	0.29962 0.18303 0.12675 0.04300
H 	H 	0.36924 0.31796 0.09736 0.02800
H 	H 	0.11312 0.18938 0.06776 0.04900
H 	H 	0.18278 0.32655 0.03961 0.02700
H 	H 	0.31210 0.38802 0.05247 0.05400
C 	C 	0.67117 0.92501 0.31211 -0.08500
C 	C 	0.62652 0.97304 0.32241 0.01100
C 	C 	0.55211 0.93523 0.32729 -0.02000
H 	H 	0.51785 0.97336 0.33430 0.04300
C 	C 	0.52206 0.84815 0.32476 -0.07900
C 	C 	0.56840 0.79913 0.31690 0.01800
C 	C 	0.64279 0.83822 0.31165 -0.01600
H 	H 	0.67814 0.80131 0.30478 0.03800
C 	C 	0.54033 0.70892 0.31051 0.02100
C 	C 	0.56217 0.65216 0.33261 -0.04700
C 	C 	0.55885 0.57316 0.32037 -0.02500
C 	C 	0.53087 0.54907 0.28672 -0.04000
C 	C 	0.50466 0.60327 0.26564 -0.02400
C 	C 	0.50880 0.68282 0.27759 -0.05000
C 	C 	0.65769 0.06273 0.32913 0.01300
C 	C 	0.69247 0.08760 0.36139 -0.05700
C 	C 	0.72244 0.17259 0.36765 -0.03100
C 	C 	0.71782 0.23292 0.34179 -0.04900
C 	C 	0.68312 0.20835 0.30963 -0.03000
C 	C 	0.65311 0.12341 0.30324 -0.06200
H 	H 	0.74920 0.19171 0.39255 0.03100
H 	H 	0.74100 0.29868 0.34669 0.03400
H 	H 	0.67938 0.25511 0.28969 0.02700
H 	H 	0.62659 0.10475 0.27821 0.04200
H 	H 	0.69630 0.04114 0.38151 0.04500
H 	H 	0.58573 0.67124 0.35826 0.04200
H 	H 	0.57804 0.53066 0.33694 0.03100
H 	H 	0.49191 0.72601 0.26024 0.03500
H 	H 	0.48306 0.58458 0.23963 0.02800
H 	H 	0.52843 0.48796 0.27724 0.03500
C 	C 	0.06940 0.30679 0.28760 -0.08400
C 	C 	0.04279 0.37635 0.28584 0.02100
C 	C 	0.07449 0.44617 0.30599 -0.02100
H 	H 	0.05129 0.49744 0.30617 0.04600
C 	C 	0.13497 0.44934 0.32635 -0.07500
C 	C 	0.17081 0.38781 0.32134 0.01900
C 	C 	0.13618 0.31540 0.30289 -0.01300
H 	H 	0.16027 0.26502 0.30129 0.04500
C 	C 	0.24660 0.40236 0.33169 0.02100
C 	C 	0.29948 0.47774 0.32129 -0.03800
C 	C 	0.36981 0.49321 0.33284 -0.02100
C 	C 	0.38979 0.43063 0.35157 -0.02800
C 	C 	0.33841 0.35382 0.36035 -0.02100
C 	C 	0.26647 0.34037 0.35141 -0.04500
C 	C 	0.98629 0.37994 0.26057 0.01300
C 	C 	0.91297 0.34359 0.27052 -0.05400
C 	C 	0.85967 0.35225 0.24748 -0.02500
C 	C 	0.87918 0.40001 0.21523 -0.03500
C 	C 	0.95201 0.43911 0.20594 -0.01500
C 	C 	0.00554 0.42868 0.22837 -0.04300
H 	H 	0.80324 0.32310 0.25490 0.02200
H 	H 	0.83784 0.40737 0.19762 0.03300
H 	H 	0.96703 0.47705 0.18126 0.03400
H 	H 	0.06188 0.45929 0.22101 0.04300
H 	H 	0.89728 0.31040 0.29634 0.03100
H 	H 	0.28536 0.52548 0.30547 0.03000
H 	H 	0.40813 0.55438 0.32811 0.04800
H 	H 	0.22637 0.28185 0.35960 0.04200
H 	H 	0.35433 0.30480 0.37411 0.03000
H 	H 	0.44500 0.44165 0.35936 0.03800
C 	C 	0.07595 0.83018 0.32386 -0.07900
C 	C 	0.07402 0.83880 0.28590 0.02100
C 	C 	0.02136 0.86972 0.27049 -0.01900
H 	H 	0.02256 0.88137 0.24154 0.03100
C 	C 	0.96966 0.88991 0.29254 -0.07400
C 	C 	0.96592 0.87056 0.32993 0.02300
C 	C 	0.01960 0.84196 0.34548 -0.01700
H 	H 	0.01871 0.83151 0.37448 0.05000
C 	C 	0.90711 0.88274 0.35312 0.01400
C 	C 	0.83708 0.82670 0.35236 -0.04000
C 	C 	0.78116 0.83962 0.37366 -0.01800
C 	C 	0.79483 0.90847 0.39564 -0.03000
C 	C 	0.86444 0.96453 0.39638 -0.03600
C 	C 	0.92062 0.95170 0.37526 -0.04600
C 	C 	0.12694 0.81561 0.26228 0.00800
C 	C 	0.18235 0.87811 0.24374 -0.05200
C 	C 	0.23800 0.85721 0.22539 -0.03700
C 	C 	0.23793 0.77385 0.22500 -0.05600
C 	C 	0.18196 0.71116 0.24274 -0.03800
C 	C 	0.12625 0.73176 0.26115 -0.06000
H 	H 	0.28097 0.90554 0.21133 0.01800
H 	H 	0.28089 0.75782 0.21066 0.01200
H 	H 	0.18209 0.64673 0.24255 0.02500
H 	H 	0.08369 0.68302 0.27532 0.03900
H 	H 	0.18320 0.94292 0.24430 0.04300
H 	H 	0.82599 0.77361 0.33516 0.04500
H 	H 	0.72712 0.79671 0.37289 0.03100
H 	H 	0.97434 0.99569 0.37578 0.04200
H 	H 	0.87482 0.01804 0.41326 0.03800
H 	H 	0.75152 0.91854 0.41202 0.03200
C 	C 	0.37954 0.92363 0.44160 -0.07600
C 	C 	0.44375 0.92839 0.46043 0.01900
C 	C 	0.46839 0.99068 0.48531 -0.02600
H 	H 	0.51767 0.99469 0.49922 0.04500
C 	C 	0.43645 0.05434 0.48855 -0.07200
C 	C 	0.37055 0.04770 0.47156 0.03100
C 	C 	0.34143 0.98062 0.44931 -0.03400
H 	H 	0.29034 0.97479 0.43692 0.04700
C 	C 	0.33293 0.11223 0.47579 0.01400
C 	C 	0.30927 0.12849 0.51008 -0.04800
C 	C 	0.27563 0.19074 0.51411 -0.02100
C 	C 	0.26417 0.23602 0.48388 -0.04200
C 	C 	0.28598 0.21884 0.44956 -0.02600
C 	C 	0.32087 0.15765 0.44544 -0.04800
C 	C 	0.49105 0.87676 0.45136 0.02300
C 	C 	0.53455 0.89557 0.41960 -0.04000
C 	C 	0.58761 0.85627 0.41342 -0.02200
C 	C 	0.59901 0.80005 0.43934 -0.03600
C 	C 	0.55764 0.78317 0.47157 -0.01900
C 	C 	0.50379 0.82137 0.47766 -0.04900
H 	H 	0.62172 0.87172 0.38920 0.03700
H 	H 	0.64159 0.77193 0.43499 0.03400
H 	H 	0.56880 0.74251 0.49228 0.03600
H 	H 	0.47384 0.81045 0.50329 0.04300
H 	H 	0.52909 0.94307 0.40052 0.04600
H 	H 	0.31896 0.09500 0.53358 0.05500
H 	H 	0.25886 0.20419 0.54072 0.03600
H 	H 	0.33871 0.14575 0.41878 0.04300
H 	H 	0.27558 0.25273 0.42618 0.03300
H 	H 	0.23825 0.28431 0.48703 0.03400
C 	C 	0.98752 0.53401 0.45804 -0.08000
C 	C 	0.97757 0.47833 0.48832 0.02300
C 	C 	0.90798 0.43800 0.50225 -0.01500
H 	H 	0.90090 0.39410 0.52511 0.03400
C 	C 	0.84829 0.45847 0.48896 -0.08300
C 	C 	0.85939 0.52080 0.46072 0.02200
C 	C 	0.92860 0.55598 0.44494 -0.01700
H 	H 	0.93644 0.60049 0.42225 0.04900
C 	C 	0.80049 0.55171 0.44776 0.02000
C 	C 	0.77324 0.53038 0.41353 -0.05100
C 	C 	0.72601 0.56961 0.39848 -0.01800
C 	C 	0.70592 0.63035 0.41742 -0.03800
C 	C 	0.73453 0.65367 0.45104 -0.02100
C 	C 	0.78261 0.61551 0.46595 -0.04100
C 	C 	0.03946 0.46972 0.50854 0.00300
C 	C 	0.06903 0.40497 0.50100 -0.06400
C 	C 	0.11895 0.38748 0.52397 -0.03200
C 	C 	0.13737 0.43223 0.55524 -0.04600
C 	C 	0.10694 0.49562 0.56323 -0.02600
C 	C 	0.05954 0.51583 0.53953 -0.05900
H 	H 	0.14203 0.33793 0.51800 0.02600
H 	H 	0.17519 0.41781 0.57327 0.03200
H 	H 	0.11997 0.52899 0.58786 0.02700
H 	H 	0.03590 0.56477 0.54602 0.04100
H 	H 	0.05222 0.36724 0.47778 0.04600
H 	H 	0.78905 0.48383 0.39855 0.04200
H 	H 	0.70430 0.55219 0.37232 0.03100
H 	H 	0.80610 0.63548 0.49156 0.04800
H 	H 	0.71954 0.70133 0.46554 0.03200
H 	H 	0.66772 0.65868 0.40620 0.03400
C 	C 	0.50831 0.52757 0.49917 -0.10200
C 	C 	0.50688 0.50748 0.46228 0.01800
C 	C 	0.46968 0.54469 0.43866 -0.01300
H 	H 	0.47269 0.53496 0.41001 0.04700
C 	C 	0.41676 0.57731 0.45256 -0.08500
C 	C 	0.41714 0.59639 0.48957 0.01500
C 	C 	0.47057 0.58135 0.51096 -0.00700
H 	H 	0.47452 0.60040 0.53869 0.03700
C 	C 	0.35704 0.62035 0.50734 0.01100
C 	C 	0.32510 0.57999 0.54011 -0.05700
C 	C 	0.27640 0.61019 0.55961 -0.02200
C 	C 	0.25444 0.67601 0.54520 -0.04900
C 	C 	0.28400 0.71462 0.51210 -0.03200
C 	C 	0.33610 0.68791 0.49352 -0.07600
C 	C 	0.52983 0.43582 0.44976 -0.03500
C 	C 	0.48070 0.37031 0.43240 -0.08800
C 	C 	0.50447 0.30891 0.41599 -0.02300
C 	C 	0.57652 0.31040 0.41809 -0.05200
C 	C 	0.62485 0.37329 0.43660 -0.03500
C 	C 	0.60165 0.43602 0.45237 -0.08800
H 	H 	0.46682 0.25955 0.40206 0.03400
H 	H 	0.59468 0.26214 0.40582 0.04200
H 	H 	0.68002 0.37268 0.43921 0.03300
H 	H 	0.63932 0.48471 0.46647 0.04800
H 	H 	0.42446 0.36789 0.43116 0.04400
H 	H 	0.33948 0.52665 0.55089 0.04500
H 	H 	0.25519 0.58202 0.58578 0.02800
H 	H 	0.36068 0.72009 0.46875 0.04000
H 	H 	0.26742 0.76616 0.50110 0.02200
H 	H 	0.21442 0.69681 0.55965 0.03500
C 	C 	0.71604 0.09867 0.61358 -0.08100
C 	C 	0.74301 0.11136 0.64851 0.01600
C 	C 	0.77702 0.05609 0.66372 -0.01800
H 	H 	0.80454 0.07179 0.68860 0.02600
C 	C 	0.78690 0.98983 0.64403 -0.08300
C 	C 	0.74957 0.96972 0.61161 0.01200
C 	C 	0.71510 0.02498 0.59641 -0.00700
H 	H 	0.69076 0.01248 0.57041 0.04600
C 	C 	0.74317 0.88959 0.59420 0.01600
C 	C 	0.67501 0.82970 0.59253 -0.05300
C 	C 	0.66709 0.75737 0.57319 -0.01700
C 	C 	0.72697 0.74435 0.55548 -0.03600
C 	C 	0.79466 0.80427 0.55651 -0.01600
C 	C 	0.80273 0.87733 0.57534 -0.04800
C 	C 	0.74214 0.18697 0.66790 -0.00100
C 	C 	0.80700 0.25028 0.67301 -0.06300
C 	C 	0.80579 0.32376 0.68950 -0.04300
C 	C 	0.74010 0.33411 0.70119 -0.05400
C 	C 	0.67537 0.27125 0.69618 -0.03800
C 	C 	0.67625 0.19773 0.67960 -0.06200
H 	H 	0.85580 0.37260 0.69327 0.02600
H 	H 	0.73934 0.39084 0.71413 0.02900
H 	H 	0.62452 0.27959 0.70505 0.02300
H 	H 	0.62585 0.14962 0.67552 0.03700
H 	H 	0.85808 0.24299 0.66378 0.03000
H 	H 	0.62828 0.83931 0.60618 0.04000
H 	H 	0.61459 0.71118 0.57213 0.03800
H 	H 	0.85453 0.92517 0.57436 0.05300
H 	H 	0.84070 0.79465 0.54229 0.03400
H 	H 	0.72084 0.68805 0.54077 0.05000
C 	C 	0.38351 0.18998 0.61410 -0.08600
C 	C 	0.34284 0.10428 0.61590 0.02200
C 	C 	0.27302 0.08003 0.63231 -0.02100
H 	H 	0.24137 0.01459 0.63374 0.04300
C 	C 	0.24397 0.13975 0.64706 -0.07500
C 	C 	0.28801 0.22372 0.64835 0.01800
C 	C 	0.35749 0.24788 0.63208 -0.01700
H 	H 	0.38977 0.31310 0.63158 0.03600
C 	C 	0.26115 0.28764 0.66529 0.02100
C 	C 	0.22373 0.33187 0.64496 -0.05100
C 	C 	0.19842 0.39253 0.66107 -0.02400
C 	C 	0.21050 0.40929 0.69744 -0.04000
C 	C 	0.24814 0.36563 0.71772 -0.02000
C 	C 	0.27374 0.30511 0.70169 -0.04300
C 	C 	0.37307 0.03922 0.60121 0.01900
C 	C 	0.33081 0.97672 0.57975 -0.05700
C 	C 	0.35898 0.91600 0.56587 -0.01900
C 	C 	0.42855 0.91550 0.57410 -0.03300
C 	C 	0.47030 0.97589 0.59618 -0.02600
C 	C 	0.44264 0.03709 0.61003 -0.03900
H 	H 	0.32696 0.86960 0.54857 0.03200
H 	H 	0.45014 0.86832 0.56335 0.03500
H 	H 	0.52417 0.97527 0.60263 0.03600
H 	H 	0.47513 0.08229 0.62765 0.04400
H 	H 	0.27662 0.97604 0.57337 0.04000
H 	H 	0.21406 0.31894 0.61682 0.03500
H 	H 	0.16943 0.42652 0.64540 0.02500
H 	H 	0.30260 0.27124 0.71757 0.04900
H 	H 	0.25746 0.37869 0.74585 0.03200
H 	H 	0.19073 0.45612 0.70989 0.03300
C 	C 	0.83073 0.61945 0.59973 -0.07800
C 	C 	0.80807 0.65686 0.62978 0.02100
C 	C 	0.85561 0.72957 0.64325 -0.01500
H 	H 	0.84003 0.75543 0.66746 0.04300
C 	C 	0.92395 0.76747 0.62660 -0.08300
C 	C 	0.94549 0.73162 0.59596 0.02500
C 	C 	0.89906 0.65742 0.58303 -0.02300
H 	H 	0.91619 0.62921 0.55986 0.04300
C 	C 	0.01626 0.77098 0.57718 0.01300
C 	C 	0.08052 0.77582 0.59466 -0.04300
C 	C 	0.14722 0.81584 0.57724 -0.02400
C 	C 	0.15019 0.84761 0.54178 -0.04000
C 	C 	0.08639 0.84103 0.52395 -0.02200
C 	C 	0.01948 0.80316 0.54161 -0.04600
C 	C 	0.73476 0.62110 0.64749 0.01900
C 	C 	0.70941 0.53630 0.65919 -0.04700
C 	C 	0.64076 0.50387 0.67579 -0.02900
C 	C 	0.59768 0.55591 0.68173 -0.03700
C 	C 	0.62346 0.64074 0.67146 -0.02000
C 	C 	0.69200 0.67353 0.65477 -0.04700
H 	H 	0.62120 0.43848 0.68433 0.02200
H 	H 	0.54460 0.53068 0.69466 0.03400
H 	H 	0.59059 0.68132 0.67672 0.03000
H 	H 	0.71254 0.73987 0.64826 0.05000
H 	H 	0.74322 0.49595 0.65601 0.01900
H 	H 	0.07870 0.74957 0.62182 0.04100
H 	H 	0.19664 0.82118 0.59107 0.02900
H 	H 	0.97027 0.79886 0.52771 0.04100
H 	H 	0.08878 0.86550 0.49648 0.03300
H 	H 	0.20189 0.87709 0.52806 0.03300
C 	C 	0.91364 0.52098 0.94766 -0.08600
C 	C 	0.90396 0.56433 0.97862 0.02100
C 	C 	0.96430 0.60632 0.99811 -0.01300
H 	H 	0.95703 0.64001 0.02170 0.04300
C 	C 	0.03170 0.59516 0.99045 -0.08400
C 	C 	0.03926 0.54454 0.96146 0.01700
C 	C 	0.98074 0.51013 0.93983 -0.01200
H 	H 	0.98655 0.47055 0.91818 0.04200
C 	C 	0.10477 0.51813 0.95628 -0.00700
C 	C 	0.16124 0.56439 0.93272 -0.07400
C 	C 	0.21779 0.53237 0.92339 -0.03600
C 	C 	0.21838 0.45459 0.93778 -0.04900
C 	C 	0.16286 0.40903 0.96173 -0.03600
C 	C 	0.10588 0.44024 0.97078 -0.07000
C 	C 	0.83066 0.55338 0.99442 -0.00200
C 	C 	0.80993 0.62327 0.00429 -0.06200
C 	C 	0.74364 0.61229 0.02260 -0.02900
C 	C 	0.69784 0.53173 0.03099 -0.04700
C 	C 	0.71705 0.46218 0.02005 -0.04500
C 	C 	0.78383 0.47263 0.00256 -0.08700
H 	H 	0.72828 0.66619 0.03072 0.02900
H 	H 	0.64797 0.52306 0.04639 0.03800
H 	H 	0.68073 0.40008 0.02563 0.02600
H 	H 	0.79965 0.41810 0.99575 0.03900
H 	H 	0.84581 0.68583 0.99851 0.04000
H 	H 	0.16005 0.62361 0.92078 0.03600
H 	H 	0.26068 0.56727 0.90468 0.03000
H 	H 	0.06197 0.40347 0.98860 0.04800
H 	H 	0.16317 0.34876 0.97272 0.03000
H 	H 	0.26170 0.42949 0.93025 0.03900
C 	C 	0.42569 0.96576 0.00544 -0.08400
C 	C 	0.43491 0.95981 0.96786 0.01500
C 	C 	0.48058 0.02819 0.94755 -0.01000
H 	H 	0.48876 0.02313 0.91880 0.03500
C 	C 	0.51219 0.10452 0.96366 -0.07900
C 	C 	0.49677 0.11265 0.00060 0.01900
C 	C 	0.45633 0.04227 0.02146 -0.00800
H 	H 	0.44759 0.04759 0.05016 0.03800
C 	C 	0.51741 0.19487 0.01730 0.01600
C 	C 	0.47179 0.24552 0.01467 -0.04800
C 	C 	0.47807 0.31030 0.03830 -0.02400
C 	C 	0.53148 0.32682 0.06387 -0.04400
C 	C 	0.57859 0.27839 0.06586 -0.02300
C 	C 	0.57241 0.21342 0.04226 -0.05600
C 	C 	0.39093 0.88655 0.94892 0.01400
C 	C 	0.31530 0.86727 0.94976 -0.05800
C 	C 	0.27422 0.80477 0.92830 -0.03200
C 	C 	0.30836 0.76251 0.90540 -0.04600
C 	C 	0.38348 0.78095 0.90467 -0.02600
C 	C 	0.42475 0.84211 0.92665 -0.05200
H 	H 	0.21600 0.79025 0.92890 0.02600
H 	H 	0.27674 0.71663 0.88770 0.03000
H 	H 	0.40987 0.74975 0.88624 0.02700
H 	H 	0.48304 0.85708 0.92540 0.03800
H 	H 	0.28856 0.90171 0.96649 0.04100
H 	H 	0.43016 0.23306 0.99508 0.05300
H 	H 	0.44091 0.34694 0.03706 0.03300
H 	H 	0.60850 0.17570 0.04427 0.04000
H 	H 	0.61980 0.29105 0.08575 0.02900
H 	H 	0.53632 0.37699 0.08217 0.03500
C 	C 	0.49821 0.48465 0.95474 -0.09700
C 	C 	0.44116 0.51044 0.94082 0.02800
C 	C 	0.40043 0.54467 0.96382 -0.02400
H 	H 	0.35758 0.56636 0.95318 0.02200
C 	C 	0.41518 0.55213 0.00046 -0.09100
C 	C 	0.47355 0.52874 0.01403 0.02500
C 	C 	0.51064 0.48918 0.99170 -0.01800
H 	H 	0.55474 0.46966 0.00226 0.02900
C 	C 	0.50312 0.55667 0.04935 0.02100
C 	C 	0.56230 0.62896 0.05110 -0.04600
C 	C 	0.59099 0.65497 0.08442 -0.01600
C 	C 	0.56071 0.60901 0.11605 -0.03600
C 	C 	0.50129 0.53753 0.11444 -0.01900
C 	C 	0.47225 0.51156 0.08120 -0.04100
C 	C 	0.42322 0.50135 0.90240 0.01600
C 	C 	0.43210 0.57242 0.87976 -0.04700
C 	C 	0.41143 0.56366 0.84395 -0.02200
C 	C 	0.38189 0.48398 0.83063 -0.03700
C 	C 	0.37323 0.41298 0.85307 -0.01800
C 	C 	0.39374 0.42160 0.88890 -0.03800
H 	H 	0.41818 0.61860 0.82656 0.02800
H 	H 	0.36591 0.47726 0.80290 0.03400
H 	H 	0.35091 0.35131 0.84267 0.04000
H 	H 	0.38864 0.36662 0.90593 0.05300
H 	H 	0.45477 0.63415 0.88994 0.03600
H 	H 	0.58665 0.66409 0.02662 0.04000
H 	H 	0.63679 0.71058 0.08570 0.03200
H 	H 	0.42552 0.45729 0.08022 0.04200
H 	H 	0.47789 0.50215 0.13895 0.02900
H 	H 	0.58312 0.62879 0.14180 0.03800
C 	C 	0.81936 0.17318 0.83709 -0.07600
C 	C 	0.88448 0.22757 0.82138 0.01900
C 	C 	0.93498 0.19407 0.80451 -0.02100
H 	H 	0.98651 0.23575 0.79439 0.04700
C 	C 	0.91760 0.10786 0.79910 -0.07800
C 	C 	0.84841 0.05503 0.81144 0.02800
C 	C 	0.80530 0.08703 0.83429 -0.01900
H 	H 	0.75580 0.04515 0.84649 0.04700
C 	C 	0.81311 0.97491 0.79434 0.01600
C 	C 	0.80509 0.97459 0.75688 -0.04900
C 	C 	0.75211 0.90979 0.74157 -0.01800
C 	C 	0.70840 0.84384 0.76331 -0.03100
C 	C 	0.71669 0.84291 0.80046 -0.02100
C 	C 	0.77002 0.90683 0.81590 -0.04400
C 	C 	0.89646 0.31837 0.81806 0.01000
C 	C 	0.93552 0.37077 0.84405 -0.04600
C 	C 	0.95856 0.45745 0.83758 -0.01500
C 	C 	0.94318 0.49186 0.80523 -0.03400
C 	C 	0.90470 0.43979 0.77921 -0.01900
C 	C 	0.88004 0.35343 0.78588 -0.05400
H 	H 	0.99017 0.49788 0.85711 0.03500
H 	H 	0.96169 0.55878 0.80024 0.04000
H 	H 	0.89485 0.46615 0.75369 0.03200
H 	H 	0.85094 0.31339 0.76544 0.03900
H 	H 	0.94964 0.34426 0.86871 0.05400
H 	H 	0.83816 0.02594 0.73992 0.03200
H 	H 	0.74358 0.91168 0.71300 0.04300
H 	H 	0.77533 0.90576 0.84488 0.03900
H 	H 	0.68109 0.79335 0.81739 0.03200
H 	H 	0.66729 0.79405 0.75141 0.03600
C 	C 	0.38212 0.16853 0.84520 -0.08200
C 	C 	0.31549 0.15856 0.86418 0.02200
C 	C 	0.25028 0.13149 0.84582 -0.02300
H 	H 	0.19950 0.12683 0.85993 0.04500
C 	C 	0.25022 0.10687 0.80995 -0.07700
C 	C 	0.31635 0.10814 0.79260 0.01500
C 	C 	0.38167 0.14270 0.80972 -0.01700
H 	H 	0.43239 0.14587 0.79585 0.02200
C 	C 	0.31797 0.06667 0.75815 0.02700
C 	C 	0.28324 0.98047 0.75594 -0.06700
C 	C 	0.29515 0.93847 0.72555 -0.02300
C 	C 	0.34395 0.98135 0.69806 -0.05300
C 	C 	0.37889 0.06691 0.70035 -0.00900
C 	C 	0.36364 0.11013 0.72947 -0.05400
C 	C 	0.31214 0.16564 0.90380 0.01400
C 	C 	0.32989 0.10668 0.92643 -0.04200
C 	C 	0.31641 0.10526 0.96370 -0.02000
C 	C 	0.28648 0.16342 0.97863 -0.03800
C 	C 	0.26955 0.22284 0.95632 -0.02000
C 	C 	0.28045 0.22262 0.91893 -0.04900
H 	H 	0.32866 0.05875 0.98099 0.04100
H 	H 	0.27696 0.16287 0.00753 0.03900
H 	H 	0.24713 0.26835 0.96796 0.03100
H 	H 	0.26366 0.26608 0.90169 0.04100
H 	H 	0.35167 0.06023 0.91502 0.05000
H 	H 	0.24876 0.94577 0.77814 0.02100
H 	H 	0.26815 0.87222 0.72380 0.02000
H 	H 	0.39045 0.17663 0.73074 0.04100
H 	H 	0.41855 0.09969 0.67990 0.03200
H 	H 	0.35507 0.94816 0.67514 0.03800
C 	C 	0.77125 0.58563 0.82316 -0.07600
C 	C 	0.77951 0.66583 0.83691 0.02200
C 	C 	0.82514 0.73657 0.81854 -0.01300
H 	H 	0.83897 0.79603 0.83145 0.04200
C 	C 	0.85826 0.73060 0.78532 -0.08000
C 	C 	0.85054 0.65079 0.77142 0.01900
C 	C 	0.80352 0.57950 0.78952 -0.01700
H 	H 	0.79515 0.51854 0.77837 0.03800
C 	C 	0.89462 0.64001 0.73948 0.00900
C 	C 	0.86070 0.59159 0.71115 -0.04900
C 	C 	0.90198 0.57234 0.68314 -0.02200
C 	C 	0.97715 0.60421 0.68241 -0.03100
C 	C 	0.01148 0.65109 0.71081 -0.02500
C 	C 	0.97060 0.66661 0.73987 -0.04800
C 	C 	0.74258 0.67726 0.87096 0.01100
C 	C 	0.78314 0.70513 0.90137 -0.06800
C 	C 	0.75056 0.72827 0.93173 -0.02900
C 	C 	0.67749 0.72350 0.93198 -0.03900
C 	C 	0.63692 0.69621 0.90176 -0.01500
C 	C 	0.66909 0.67252 0.87138 -0.04600
H 	H 	0.78231 0.75158 0.95477 0.02900
H 	H 	0.65232 0.74093 0.95560 0.03600
H 	H 	0.58055 0.69321 0.90192 0.03300
H 	H 	0.63726 0.65148 0.84805 0.05000
H 	H 	0.84019 0.71072 0.90112 0.05100
H 	H 	0.80268 0.56528 0.71196 0.04000
H 	H 	0.87568 0.53239 0.66207 0.02700
H 	H 	0.99784 0.69505 0.76337 0.03900
H 	H 	0.06986 0.67325 0.71088 0.02600
H 	H 	0.00887 0.59106 0.66021 0.03000
