data_crystal

_cell_length_a 28.35816
_cell_length_b 29.32466
_cell_length_c 29.36758
_cell_angle_alpha 90.80582
_cell_angle_beta  89.83818
_cell_angle_gamma 89.21626

_symmetry_space_group_name_	'P 1'
_symmetry_space_group_name_H-M	'P 1'

loop_
_symmetry_equiv_pos_as_xyz
  x,y,z

loop_
_atom_site_label
_atom_site_type_symbol
_atom_site_fract_x
_atom_site_fract_y
_atom_site_fract_z
_atom_site_charge
Ni	Ni	0.48974 0.49209 0.53915 1.09900
O 	O 	0.53041 0.52843 0.49527 -0.69500
Ni	Ni	0.49150 0.52130 0.43778 1.09900
O 	O 	0.53922 0.49251 0.58974 -0.37900
O 	O 	0.60959 0.48497 0.55198 -0.40900
O 	O 	0.46054 0.55398 0.55955 -0.38600
Ni	Ni	0.59347 0.50287 0.48480 1.06100
O 	O 	0.39334 0.43802 0.52512 -0.43000
O 	O 	0.56267 0.44205 0.47070 -0.43200
O 	O 	0.53079 0.55897 0.39722 -0.39400
O 	O 	0.45607 0.48161 0.48055 -0.71200
O 	O 	0.44503 0.45915 0.58176 -0.38400
O 	O 	0.43761 0.52777 0.39141 -0.38600
O 	O 	0.38940 0.55241 0.44877 -0.42700
Ni	Ni	0.38920 0.49402 0.48737 1.06900
H 	H 	0.53211 0.56101 0.50431 0.14800
H 	H 	0.46063 0.44930 0.47119 0.15900
C 	C 	0.54764 0.43253 0.42943 0.25700
O 	O 	0.38483 0.53142 0.54656 -0.40300
C 	C 	0.57972 0.47074 0.58321 0.25200
C 	C 	0.57627 0.55808 0.40305 0.26200
C 	C 	0.41472 0.56281 0.55977 0.26900
C 	C 	0.39970 0.55077 0.40506 0.24000
C 	C 	0.40525 0.44012 0.56837 0.28000
O 	O 	0.52115 0.46266 0.40716 -0.36600
O 	O 	0.59716 0.52080 0.41814 -0.41800
Ni	Ni	0.05368 0.50741 0.49469 1.09000
O 	O 	0.03264 0.44755 0.52481 -0.71500
Ni	Ni	0.96853 0.44141 0.49600 1.10500
O 	O 	0.10579 0.52525 0.54006 -0.37300
O 	O 	0.09024 0.47735 0.59800 -0.42400
O 	O 	0.10372 0.47121 0.45789 -0.37400
Ni	Ni	0.02245 0.45428 0.59022 1.04700
O 	O 	0.06461 0.52312 0.39203 -0.41700
O 	O 	0.99275 0.51662 0.57786 -0.40900
O 	O 	0.94389 0.38810 0.53324 -0.38600
O 	O 	0.99301 0.49617 0.46204 -0.68200
O 	O 	0.07069 0.56389 0.45884 -0.38700
O 	O 	0.91129 0.43796 0.45356 -0.37700
O 	O 	0.95823 0.42936 0.39044 -0.39900
Ni	Ni	0.00912 0.47954 0.39949 1.04300
H 	H 	0.05306 0.42073 0.51779 0.15000
H 	H 	0.97153 0.52306 0.46363 0.15500
C 	C 	0.94919 0.51979 0.56223 0.25100
O 	O 	0.05088 0.42720 0.42066 -0.44200
C 	C 	0.10234 0.51763 0.58394 0.26600
C 	C 	0.94257 0.39116 0.57801 0.26300
C 	C 	0.09377 0.43351 0.43570 0.26800
C 	C 	0.91622 0.42757 0.40998 0.24900
C 	C 	0.06880 0.56282 0.41380 0.24700
O 	O 	0.93107 0.48623 0.53743 -0.36900
O 	O 	0.95728 0.42840 0.59847 -0.41000
Ni	Ni	0.50443 0.53514 0.94740 1.09500
O 	O 	0.53897 0.49120 0.98846 -0.72500
Ni	Ni	0.51072 0.50713 0.04840 1.10000
O 	O 	0.55609 0.53391 0.89874 -0.38900
O 	O 	0.61006 0.55313 0.95271 -0.43200
O 	O 	0.46835 0.48084 0.91702 -0.36800
Ni	Ni	0.60701 0.49620 0.99364 1.05800
O 	O 	0.39763 0.54788 0.93276 -0.41900
O 	O 	0.61795 0.53458 0.05191 -0.38800
O 	O 	0.55613 0.46940 0.08789 -0.37800
O 	O 	0.46984 0.54618 0.00641 -0.68600
O 	O 	0.46648 0.57923 0.90983 -0.39100
O 	O 	0.46424 0.51582 0.10065 -0.38100
O 	O 	0.39136 0.51174 0.06690 -0.40000
Ni	Ni	0.40438 0.52782 0.99872 1.05400
H 	H 	0.53089 0.45935 0.98049 0.15000
H 	H 	0.47118 0.57894 0.01487 0.15300
C 	C 	0.59192 0.57005 0.06431 0.26700
O 	O 	0.42428 0.46309 0.98016 -0.43100
C 	C 	0.59671 0.55224 0.90965 0.24300
C 	C 	0.58346 0.43583 0.07123 0.25800
C 	C 	0.43864 0.45339 0.93827 0.25500
C 	C 	0.42246 0.49712 0.09710 0.25500
C 	C 	0.42073 0.58270 0.91604 0.25400
O 	O 	0.54557 0.56670 0.06517 -0.38100
O 	O 	0.60670 0.43974 0.03213 -0.40700
Ni	Ni	0.51952 0.04056 0.54456 1.10000
O 	O 	0.56111 0.01851 0.49238 -0.69900
Ni	Ni	0.52678 0.96283 0.47272 1.09400
O 	O 	0.56453 0.09260 0.55617 -0.38500
O 	O 	0.62871 0.04605 0.56887 -0.40400
O 	O 	0.48511 0.08343 0.49995 -0.37100
Ni	Ni	0.62314 0.99921 0.51379 1.04800
O 	O 	0.41228 0.05829 0.54952 -0.41300
O 	O 	0.59513 0.95593 0.56023 -0.43100
O 	O 	0.57062 0.94761 0.41944 -0.38800
O 	O 	0.48784 0.98135 0.52967 -0.71100
O 	O 	0.47640 0.06330 0.59607 -0.39300
O 	O 	0.48059 0.91653 0.44509 -0.37200
O 	O 	0.41283 0.93461 0.48340 -0.41700
Ni	Ni	0.42226 0.99708 0.51597 1.05200
H 	H 	0.56341 0.04077 0.46746 0.15500
H 	H 	0.49041 0.95964 0.55508 0.15100
C 	C 	0.57943 0.91581 0.54795 0.26500
O 	O 	0.44432 0.02959 0.45937 -0.42300
C 	C 	0.60606 0.08570 0.57445 0.25400
C 	C 	0.61633 0.94088 0.42588 0.25100
C 	C 	0.46176 0.07094 0.46291 0.25500
C 	C 	0.43430 0.92151 0.44549 0.26000
C 	C 	0.43107 0.07005 0.58908 0.26200
O 	O 	0.55845 0.91048 0.50830 -0.37400
O 	O 	0.63495 0.94645 0.46733 -0.41400
Ni	Ni	0.05320 0.45311 0.98909 1.08000
O 	O 	0.01492 0.49965 0.95278 -0.72500
Ni	Ni	0.95610 0.50393 0.99165 1.09700
O 	O 	0.10290 0.44886 0.93943 -0.39500
O 	O 	0.06104 0.44504 0.87314 -0.42500
O 	O 	0.08427 0.50895 0.01953 -0.37800
Ni	Ni	0.99797 0.47919 0.89145 1.07800
O 	O 	0.03259 0.39321 0.07811 -0.43600
O 	O 	0.97142 0.42185 0.91931 -0.41700
O 	O 	0.92331 0.55356 0.95583 -0.38800
O 	O 	0.99178 0.45271 0.02244 -0.67200
O 	O 	0.09311 0.40985 0.02855 -0.37400
O 	O 	0.91070 0.51538 0.04583 -0.36900
O 	O 	0.97298 0.52068 0.09450 -0.39900
Ni	Ni	0.00339 0.45608 0.08745 1.04800
H 	H 	0.03043 0.52967 0.95177 0.13900
H 	H 	0.97631 0.42335 0.01571 0.16600
C 	C 	0.92783 0.42163 0.93437 0.25600
O 	O 	0.06908 0.48374 0.09088 -0.41000
C 	C 	0.09208 0.42717 0.90155 0.25400
C 	C 	0.92531 0.55099 0.91109 0.25600
C 	C 	0.08307 0.51622 0.06389 0.26100
C 	C 	0.92811 0.52864 0.08559 0.23600
C 	C 	0.07633 0.38657 0.06329 0.26800
O 	O 	0.91211 0.45561 0.96107 -0.37000
O 	O 	0.93353 0.51109 0.89093 -0.41200
Ni	Ni	0.01596 0.02834 0.49670 1.08600
O 	O 	0.97600 0.98636 0.53612 -0.69300
Ni	Ni	0.01688 0.92977 0.53444 1.07300
O 	O 	0.96321 0.07524 0.48601 -0.35600
O 	O 	0.89605 0.03460 0.49095 -0.40600
O 	O 	0.03912 0.06636 0.55342 -0.37300
Ni	Ni	0.91511 0.96924 0.50937 1.05800
O 	O 	0.12154 0.05386 0.50019 -0.41700
O 	O 	0.94473 0.94878 0.44873 -0.42100
O 	O 	0.97502 0.88999 0.57417 -0.37400
O 	O 	0.05739 0.97212 0.49643 -0.71700
O 	O 	0.05727 0.06571 0.45534 -0.40000
O 	O 	0.07052 0.88431 0.54129 -0.39900
O 	O 	0.13620 0.92624 0.55323 -0.41600
Ni	Ni	0.11831 0.98873 0.52387 1.05100
H 	H 	0.97225 0.99804 0.56773 0.15200
H 	H 	0.06181 0.96042 0.46489 0.13900
C 	C 	0.96344 0.90729 0.44575 0.25700
O 	O 	0.08667 0.01044 0.58253 -0.41800
C 	C 	0.92263 0.06291 0.46855 0.26000
C 	C 	0.92956 0.88877 0.56594 0.26100
C 	C 	0.06869 0.05185 0.58547 0.25700
C 	C 	0.10620 0.89533 0.56706 0.25900
C 	C 	0.10304 0.06795 0.46158 0.26300
O 	O 	0.99650 0.89463 0.47530 -0.34700
O 	O 	0.91399 0.90324 0.52696 -0.43000
Ni	Ni	0.49998 0.98450 0.96821 1.08200
O 	O 	0.47058 0.02722 0.01641 -0.68400
Ni	Ni	0.50887 0.00790 0.07091 1.10600
O 	O 	0.44831 0.99693 0.92192 -0.38900
O 	O 	0.38014 0.00367 0.96262 -0.39600
O 	O 	0.53740 0.03810 0.94153 -0.35700
Ni	Ni	0.40364 0.01532 0.02946 1.07000
O 	O 	0.60295 0.97287 0.94027 -0.42900
O 	O 	0.41994 0.94788 0.03577 -0.43300
O 	O 	0.47927 0.05132 0.11662 -0.39000
O 	O 	0.53944 0.96681 0.02238 -0.70400
O 	O 	0.53228 0.94165 0.92271 -0.39600
O 	O 	0.56087 0.99706 0.11731 -0.40700
O 	O 	0.62873 0.99511 0.07578 -0.43200
Ni	Ni	0.60514 0.98406 0.00894 1.06200
H 	H 	0.47551 0.05982 0.00984 0.15300
H 	H 	0.53669 0.93394 0.02903 0.15600
C 	C 	0.43698 0.93160 0.07384 0.25900
O 	O 	0.58632 0.05085 0.00209 -0.39800
C 	C 	0.40529 0.98356 0.93006 0.23900
C 	C 	0.43368 0.05782 0.11733 0.26800
C 	C 	0.56587 0.06525 0.96466 0.23200
C 	C 	0.60293 0.01298 0.10911 0.30300
C 	C 	0.57851 0.93972 0.92148 0.26000
O 	O 	0.47006 0.95399 0.09658 -0.37400
O 	O 	0.40563 0.02756 0.09820 -0.41000
Ni	Ni	0.01614 0.99294 0.08068 1.07100
O 	O 	0.04850 0.02241 0.02663 -0.68600
Ni	Ni	0.00222 0.00763 0.97658 1.08100
O 	O 	0.07339 0.99349 0.12351 -0.39000
O 	O 	0.13628 0.99145 0.07564 -0.41600
O 	O 	0.98920 0.05647 0.10186 -0.33600
Ni	Ni	0.10918 0.99379 0.01002 1.06700
O 	O 	0.90943 0.98921 0.11258 -0.42800
O 	O 	0.07840 0.93144 0.00948 -0.41500
O 	O 	0.03790 0.04083 0.92699 -0.41000
O 	O 	0.97052 0.97500 0.02988 -0.67400
O 	O 	0.98251 0.96794 0.13448 -0.37600
O 	O 	0.94588 0.00640 0.93307 -0.35400
O 	O 	0.88118 0.00352 0.97804 -0.41000
Ni	Ni	0.90580 0.99656 0.04416 1.06200
H 	H 	0.05145 0.05582 0.03069 0.15000
H 	H 	0.97122 0.94151 0.02525 0.16100
C 	C 	0.05821 0.91733 0.97155 0.23600
O 	O 	0.93369 0.05964 0.04576 -0.41400
C 	C 	0.11318 0.97399 0.10979 0.25900
C 	C 	0.08257 0.03028 0.92226 0.31100
C 	C 	0.95061 0.07543 0.08419 0.26100
C 	C 	0.90516 0.02385 0.94622 0.25800
C 	C 	0.93800 0.95919 0.13087 0.27200
O 	O 	0.02592 0.94393 0.95180 -0.38100
O 	O 	0.09927 0.99456 0.94242 -0.45800
Ni	Ni	0.83092 0.74922 0.25524 1.09600
O 	O 	0.77629 0.71667 0.28547 -0.69600
Ni	Ni	0.72310 0.73463 0.24266 1.09600
O 	O 	0.87681 0.74718 0.30947 -0.36700
O 	O 	0.82994 0.74614 0.37194 -0.41000
O 	O 	0.85346 0.68736 0.22591 -0.36400
Ni	Ni	0.76160 0.73848 0.34764 1.06400
O 	O 	0.86213 0.75495 0.15276 -0.42000
O 	O 	0.75808 0.80263 0.32244 -0.43200
O 	O 	0.67260 0.69956 0.27395 -0.39000
O 	O 	0.77751 0.76857 0.21282 -0.69300
O 	O 	0.88512 0.77723 0.22311 -0.38700
O 	O 	0.67656 0.73713 0.18910 -0.37100
O 	O 	0.72241 0.74072 0.12609 -0.40800
Ni	Ni	0.79126 0.74767 0.14977 1.06400
H 	H 	0.78104 0.68315 0.28484 0.14800
H 	H 	0.77250 0.80202 0.21438 0.14700
C 	C 	0.71786 0.81797 0.30644 0.25900
O 	O 	0.79316 0.68338 0.17412 -0.43400
C 	C 	0.86349 0.76561 0.34871 0.25400
C 	C 	0.67395 0.69671 0.31808 0.27100
C 	C 	0.83219 0.66635 0.19121 0.26100
C 	C 	0.68930 0.72026 0.14914 0.25700
C 	C 	0.88133 0.78521 0.17998 0.27600
O 	O 	0.69662 0.79508 0.27292 -0.36200
O 	O 	0.69134 0.73021 0.34236 -0.42500
Ni	Ni	0.73349 0.28373 0.73715 1.09700
O 	O 	0.76178 0.22397 0.76222 -0.70000
Ni	Ni	0.73329 0.22637 0.82495 1.09300
O 	O 	0.77742 0.28738 0.68188 -0.37400
O 	O 	0.84107 0.24496 0.70289 -0.40900
O 	O 	0.68827 0.24669 0.69725 -0.37400
Ni	Ni	0.83025 0.22597 0.76988 1.06400
O 	O 	0.62833 0.30949 0.72482 -0.40700
O 	O 	0.82109 0.29081 0.79461 -0.43500
O 	O 	0.76675 0.16999 0.85060 -0.39400
O 	O 	0.70119 0.28241 0.79762 -0.70400
O 	O 	0.70070 0.34199 0.71588 -0.38900
O 	O 	0.68779 0.22678 0.87861 -0.38500
O 	O 	0.61594 0.24371 0.84721 -0.40400
Ni	Ni	0.63331 0.27520 0.78547 1.06000
H 	H 	0.75229 0.19620 0.74525 0.15100
H 	H 	0.70717 0.31073 0.81530 0.15000
C 	C 	0.80872 0.29838 0.83744 0.25100
O 	O 	0.64298 0.21410 0.75203 -0.42000
C 	C 	0.82334 0.28238 0.68534 0.26300
C 	C 	0.81292 0.16601 0.84825 0.25800
C 	C 	0.66345 0.21208 0.71159 0.25500
C 	C 	0.64350 0.21636 0.87132 0.25200
C 	C 	0.65432 0.34453 0.71240 0.25500
O 	O 	0.78007 0.26973 0.85840 -0.36900
O 	O 	0.83758 0.20059 0.83368 -0.41700
Ni	Ni	0.24572 0.78356 0.80249 1.09400
O 	O 	0.22127 0.71987 0.78802 -0.70500
Ni	Ni	0.24711 0.71176 0.72521 1.09800
O 	O 	0.20693 0.78863 0.86139 -0.38100
O 	O 	0.13883 0.75084 0.84539 -0.41300
O 	O 	0.30125 0.75134 0.83489 -0.37200
Ni	Ni	0.15231 0.71637 0.78377 1.06000
O 	O 	0.34765 0.81729 0.79807 -0.41100
O 	O 	0.14826 0.77391 0.74475 -0.42100
O 	O 	0.22110 0.64837 0.71537 -0.39900
O 	O 	0.26910 0.77693 0.73799 -0.70100
O 	O 	0.27442 0.84563 0.81577 -0.39800
O 	O 	0.28314 0.70645 0.66533 -0.38100
O 	O 	0.35116 0.74530 0.67686 -0.40400
Ni	Ni	0.33836 0.78089 0.73859 1.06100
H 	H 	0.23365 0.69606 0.80851 0.15200
H 	H 	0.25506 0.80024 0.71792 0.14900
C 	C 	0.16645 0.77312 0.70330 0.25200
O 	O 	0.34022 0.72148 0.77236 -0.43300
C 	C 	0.16040 0.78765 0.86050 0.25500
C 	C 	0.17525 0.64243 0.71335 0.26300
C 	C 	0.32674 0.71834 0.81510 0.25000
C 	C 	0.32928 0.70766 0.66409 0.25900
C 	C 	0.32032 0.85117 0.81333 0.25800
O 	O 	0.19152 0.73761 0.68937 -0.37600
O 	O 	0.14584 0.67539 0.72712 -0.41400
Ni	Ni	0.30574 0.27294 0.76622 1.09700
O 	O 	0.29442 0.21409 0.79977 -0.70300
Ni	Ni	0.22923 0.20201 0.77747 1.10000
O 	O 	0.36539 0.28980 0.80222 -0.37300
O 	O 	0.35377 0.25876 0.87211 -0.40400
O 	O 	0.34165 0.23192 0.71840 -0.36400
Ni	Ni	0.29210 0.22029 0.86625 1.06300
O 	O 	0.29815 0.28717 0.66587 -0.42600
O 	O 	0.25164 0.27752 0.86017 -0.42700
O 	O 	0.22557 0.14409 0.81181 -0.40800
O 	O 	0.23864 0.26250 0.74603 -0.70500
O 	O 	0.31505 0.32909 0.72891 -0.40100
O 	O 	0.16927 0.18053 0.74263 -0.37100
O 	O 	0.17321 0.22312 0.67863 -0.41700
Ni	Ni	0.23860 0.25386 0.68029 1.06500
H 	H 	0.31632 0.18901 0.79064 0.15600
H 	H 	0.21686 0.28742 0.75581 0.15400
C 	C 	0.20737 0.27593 0.84693 0.25100
O 	O 	0.27611 0.19548 0.69023 -0.43900
C 	C 	0.36350 0.29455 0.84700 0.25100
C 	C 	0.22014 0.14583 0.85583 0.27200
C 	C 	0.32215 0.19640 0.69693 0.24800
C 	C 	0.16476 0.18397 0.69793 0.26000
C 	C 	0.30959 0.32624 0.68483 0.26900
O 	O 	0.19071 0.23886 0.82620 -0.37200
O 	O 	0.23377 0.18207 0.87956 -0.41700
Ni	Ni	0.19697 0.72248 0.23228 1.09500
O 	O 	0.23163 0.77259 0.26825 -0.69900
Ni	Ni	0.29594 0.76689 0.23948 1.09400
O 	O 	0.13980 0.71950 0.27517 -0.37600
O 	O 	0.16878 0.74360 0.34324 -0.41400
O 	O 	0.16572 0.77253 0.19226 -0.37000
Ni	Ni	0.23945 0.75832 0.33290 1.06100
O 	O 	0.18644 0.70478 0.12858 -0.41100
O 	O 	0.25848 0.69375 0.31289 -0.43300
O 	O 	0.32858 0.81464 0.27971 -0.39200
O 	O 	0.26108 0.71739 0.20301 -0.69600
O 	O 	0.16653 0.67147 0.19542 -0.38900
O 	O 	0.35228 0.76923 0.19599 -0.37400
O 	O 	0.32285 0.74962 0.12656 -0.40200
Ni	Ni	0.25339 0.72901 0.13758 1.06300
H 	H 	0.21789 0.80347 0.26418 0.14800
H 	H 	0.27466 0.68652 0.20755 0.15100
C 	C 	0.30243 0.68443 0.30066 0.25400
O 	O 	0.23167 0.79387 0.15250 -0.42500
C 	C 	0.14620 0.71307 0.31896 0.26200
C 	C 	0.32820 0.80997 0.32421 0.26300
C 	C 	0.19011 0.80402 0.17055 0.24900
C 	C 	0.34507 0.77899 0.15302 0.25400
C 	C 	0.17007 0.66944 0.15085 0.25700
O 	O 	0.32654 0.71437 0.27660 -0.36500
O 	O 	0.30828 0.77417 0.34203 -0.42200
Ni	Ni	0.78236 0.21595 0.26813 1.09800
O 	O 	0.74077 0.26013 0.23175 -0.69700
Ni	Ni	0.67890 0.25184 0.26457 1.09500
O 	O 	0.83769 0.21345 0.22300 -0.37200
O 	O 	0.80358 0.22868 0.15489 -0.40600
O 	O 	0.81247 0.27174 0.29970 -0.36900
Ni	Ni	0.73217 0.24060 0.16826 1.06400
O 	O 	0.80122 0.21723 0.36994 -0.42000
O 	O 	0.72147 0.17699 0.19259 -0.43600
O 	O 	0.63964 0.29390 0.22535 -0.39600
O 	O 	0.72118 0.21002 0.30235 -0.70100
O 	O 	0.82081 0.17339 0.30825 -0.38800
O 	O 	0.62471 0.25542 0.31075 -0.37800
O 	O 	0.66112 0.24925 0.37935 -0.41000
Ni	Ni	0.73148 0.23281 0.36487 1.06200
H 	H 	0.75116 0.29218 0.23389 0.15300
H 	H 	0.71055 0.17800 0.30213 0.15100
C 	C 	0.67923 0.16509 0.20619 0.25400
O 	O 	0.74796 0.29555 0.34160 -0.42900
C 	C 	0.83124 0.20283 0.17994 0.26100
C 	C 	0.64069 0.28889 0.18110 0.27300
C 	C 	0.79075 0.30286 0.32580 0.25900
C 	C 	0.63308 0.27184 0.35178 0.25700
C 	C 	0.82006 0.17971 0.35259 0.26300
O 	O 	0.65269 0.19419 0.23084 -0.36500
O 	O 	0.66157 0.25281 0.16256 -0.41900
Ni	Ni	0.29096 0.23996 0.32691 1.09900
O 	O 	0.32348 0.28879 0.29075 -0.70700
Ni	Ni	0.29008 0.28459 0.23099 1.10300
O 	O 	0.34524 0.23441 0.37181 -0.39200
O 	O 	0.39907 0.22037 0.31532 -0.41800
O 	O 	0.25848 0.28952 0.36876 -0.36800
Ni	Ni	0.39102 0.28183 0.28055 1.06600
O 	O 	0.18559 0.23244 0.34657 -0.41600
O 	O 	0.39414 0.24820 0.21899 -0.39900
O 	O 	0.33320 0.32513 0.19299 -0.37700
O 	O 	0.25231 0.23994 0.26916 -0.69700
O 	O 	0.25363 0.19211 0.35957 -0.38900
O 	O 	0.24100 0.28497 0.17921 -0.37300
O 	O 	0.18234 0.30514 0.22912 -0.41800
Ni	Ni	0.19030 0.26317 0.28434 1.06400
H 	H 	0.31758 0.31936 0.30442 0.15800
H 	H 	0.25080 0.20892 0.25552 0.14900
C 	C 	0.36412 0.21655 0.20734 0.26700
O 	O 	0.22449 0.31848 0.30725 -0.43800
C 	C 	0.38488 0.21503 0.35786 0.24400
C 	C 	0.36793 0.35096 0.20893 0.26300
C 	C 	0.23326 0.32218 0.35015 0.27400
C 	C 	0.19665 0.29684 0.18724 0.25400
C 	C 	0.20722 0.19385 0.35791 0.25300
O 	O 	0.31951 0.22713 0.20317 -0.39000
O 	O 	0.38983 0.34253 0.24807 -0.41600
Ni	Ni	0.69756 0.75382 0.72956 1.09500
O 	O 	0.72684 0.69753 0.69773 -0.70000
Ni	Ni	0.79094 0.69794 0.72597 1.10000
O 	O 	0.64031 0.75610 0.68762 -0.37700
O 	O 	0.66756 0.72792 0.61975 -0.41000
O 	O 	0.66625 0.70850 0.77367 -0.36600
Ni	Ni	0.73577 0.70345 0.63181 1.06100
O 	O 	0.69006 0.77278 0.83067 -0.42200
O 	O 	0.76378 0.76660 0.64214 -0.42800
O 	O 	0.81573 0.64133 0.69257 -0.39400
O 	O 	0.76304 0.75617 0.75572 -0.69700
O 	O 	0.66951 0.80797 0.76537 -0.39200
O 	O 	0.85010 0.69629 0.76534 -0.37600
O 	O 	0.82698 0.73030 0.83178 -0.41400
Ni	Ni	0.75727 0.75012 0.82187 1.06300
H 	H 	0.71035 0.66890 0.70464 0.15300
H 	H 	0.77943 0.78448 0.74746 0.15100
C 	C 	0.80727 0.77073 0.65746 0.25700
O 	O 	0.73493 0.68607 0.80853 -0.44300
C 	C 	0.64722 0.76098 0.64370 0.25800
C 	C 	0.81795 0.64043 0.64783 0.26200
C 	C 	0.69048 0.67856 0.79825 0.25500
C 	C 	0.84674 0.69577 0.80978 0.26900
C 	C 	0.67334 0.80882 0.80992 0.26100
O 	O 	0.82671 0.73785 0.68136 -0.37200
O 	O 	0.80170 0.67544 0.62457 -0.41600
C 	C 	0.93068 0.15915 0.09667 -0.06300
C 	C 	0.92067 0.10967 0.11162 -0.02700
C 	C 	0.89634 0.14188 0.18991 -0.05600
C 	C 	0.86478 0.16925 0.15619 -0.03500
C 	C 	0.89795 0.19390 0.12244 -0.05500
H 	H 	0.96820 0.16748 0.10349 0.04600
H 	H 	0.92506 0.16230 0.05933 0.04500
H 	H 	0.87383 0.12342 0.21449 0.04200
H 	H 	0.91857 0.16571 0.21008 0.05100
H 	H 	0.91983 0.21902 0.14134 0.04300
H 	H 	0.87676 0.21330 0.09721 0.04400
C 	C 	0.83517 0.13444 0.12885 -0.05900
H 	H 	0.81188 0.15236 0.10420 0.03300
H 	H 	0.81181 0.11555 0.15234 0.03100
C 	C 	0.86737 0.10026 0.10271 -0.06300
H 	H 	0.85860 0.06504 0.11307 0.02900
H 	H 	0.85935 0.10281 0.06573 0.03500
C 	C 	0.92884 0.10698 0.16386 -0.06300
H 	H 	0.92154 0.07191 0.17578 0.05800
H 	H 	0.96635 0.11421 0.17190 0.05600
C 	C 	0.12474 0.86506 0.18843 -0.06100
C 	C 	0.16698 0.84930 0.15763 -0.03100
C 	C 	0.12778 0.89125 0.09215 -0.05800
C 	C 	0.13102 0.92898 0.12963 -0.04700
C 	C 	0.10395 0.91199 0.17225 -0.05400
H 	H 	0.09656 0.83903 0.18742 0.04000
H 	H 	0.13656 0.86829 0.22441 0.02700
H 	H 	0.14733 0.90192 0.06127 0.03200
H 	H 	0.09025 0.88626 0.08258 0.02800
H 	H 	0.06601 0.90819 0.16408 0.02700
H 	H 	0.10632 0.93765 0.20038 0.03300
C 	C 	0.18363 0.93370 0.14326 -0.05200
H 	H 	0.18703 0.95986 0.17085 0.02900
H 	H 	0.20481 0.94556 0.11383 0.03400
C 	C 	0.20443 0.88768 0.15952 -0.06200
H 	H 	0.23530 0.87849 0.13758 0.03900
H 	H 	0.21784 0.89171 0.19492 0.02300
C 	C 	0.14876 0.84531 0.10813 -0.05800
H 	H 	0.17800 0.83463 0.08475 0.03700
H 	H 	0.12138 0.81853 0.10576 0.04000
C 	C 	0.18400 0.11541 0.92758 -0.06300
C 	C 	0.18315 0.11640 0.87487 -0.03200
C 	C 	0.15193 0.03601 0.87299 -0.04300
C 	C 	0.11685 0.06306 0.90433 -0.07500
C 	C 	0.14481 0.08405 0.94495 -0.04000
H 	H 	0.21897 0.10286 0.93963 0.02400
H 	H 	0.17831 0.15034 0.94206 0.03700
H 	H 	0.13284 0.02105 0.84335 0.03600
H 	H 	0.16874 0.00714 0.89145 0.03800
H 	H 	0.16121 0.05668 0.96580 -0.02100
H 	H 	0.12043 0.10389 0.96774 0.00300
C 	C 	0.09433 0.10226 0.87677 -0.03900
H 	H 	0.06914 0.12234 0.89848 0.02700
H 	H 	0.07421 0.08817 0.84740 0.03200
C 	C 	0.13356 0.13387 0.85938 -0.06700
H 	H 	0.13182 0.13516 0.82155 0.05100
H 	H 	0.12707 0.16920 0.87255 0.04500
C 	C 	0.19096 0.06714 0.85607 -0.06400
H 	H 	0.19073 0.06642 0.81814 0.04800
H 	H 	0.22597 0.05363 0.86706 0.03400
C 	C 	0.15481 0.86906 0.88784 -0.06200
C 	C 	0.13265 0.82122 0.89041 -0.03400
C 	C 	0.10565 0.84231 0.97134 -0.06000
C 	C 	0.08440 0.88147 0.94214 -0.03100
C 	C 	0.12573 0.90415 0.91618 -0.05500
H 	H 	0.19165 0.86806 0.90088 0.04200
H 	H 	0.15657 0.88015 0.85176 0.02800
H 	H 	0.07714 0.82525 0.99054 0.02300
H 	H 	0.13059 0.85649 0.99674 0.02900
H 	H 	0.14959 0.92164 0.94065 0.01700
H 	H 	0.11141 0.92985 0.89221 0.04900
C 	C 	0.05182 0.85937 0.90581 -0.05800
H 	H 	0.03545 0.88608 0.88418 0.03900
H 	H 	0.02260 0.84123 0.92290 0.02200
C 	C 	0.08021 0.82536 0.87482 -0.05900
H 	H 	0.06307 0.79147 0.87587 0.03000
H 	H 	0.07872 0.83695 0.83891 0.02800
C 	C 	0.13264 0.80657 0.94102 -0.05600
H 	H 	0.11576 0.77272 0.94422 0.03000
H 	H 	0.16951 0.80278 0.95345 0.03500
C 	C 	0.88974 0.12126 0.85714 -0.05600
C 	C 	0.83780 0.12788 0.87372 -0.03700
C 	C 	0.83774 0.04289 0.89299 -0.05700
C 	C 	0.88132 0.06135 0.91898 -0.03400
C 	C 	0.91508 0.08254 0.88350 -0.06200
H 	H 	0.89037 0.11303 0.82002 0.02400
H 	H 	0.90962 0.15341 0.86214 0.04000
H 	H 	0.81250 0.02758 0.91732 0.03800
H 	H 	0.84896 0.01539 0.86863 0.04200
H 	H 	0.92769 0.05585 0.85886 0.05600
H 	H 	0.94672 0.09641 0.90095 0.04700
C 	C 	0.86413 0.10032 0.95184 -0.06200
H 	H 	0.89465 0.11464 0.97074 0.03100
H 	H 	0.83944 0.08666 0.97768 0.02700
C 	C 	0.83879 0.13900 0.92549 -0.05500
H 	H 	0.80217 0.14350 0.93872 0.03900
H 	H 	0.85729 0.17174 0.93173 0.04000
C 	C 	0.81228 0.08167 0.86671 -0.05900
H 	H 	0.77511 0.08464 0.87880 0.04100
H 	H 	0.81118 0.07264 0.82980 0.02900
C 	C 	0.86592 0.86770 0.19086 -0.05600
C 	C 	0.89491 0.83070 0.16377 -0.05900
C 	C 	0.90232 0.88718 0.09944 -0.05600
C 	C 	0.92142 0.91282 0.14219 -0.05800
C 	C 	0.88195 0.91596 0.17849 -0.05100
H 	H 	0.82768 0.86428 0.18323 0.00700
H 	H 	0.87017 0.86332 0.22824 0.02800
H 	H 	0.93006 0.88493 0.07261 0.01200
H 	H 	0.87176 0.90618 0.08493 -0.00100
H 	H 	0.85132 0.93596 0.16544 0.02900
H 	H 	0.89491 0.93393 0.20959 0.03500
C 	C 	0.96346 0.88428 0.16150 -0.05100
H 	H 	0.97845 0.90158 0.19212 0.05100
H 	H 	0.99206 0.88096 0.13553 0.04300
C 	C 	0.94786 0.83652 0.17439 -0.05300
H 	H 	0.96929 0.81052 0.15521 0.04900
H 	H 	0.95496 0.83149 0.21130 0.05300
C 	C 	0.88695 0.83832 0.11212 -0.05000
H 	H 	0.90765 0.81274 0.09173 0.03700
H 	H 	0.84908 0.83385 0.10355 0.00500
C 	C 	0.67323 0.04283 0.15243 -0.05200
C 	C 	0.62186 0.05289 0.13702 -0.04700
C 	C 	0.61263 0.10589 0.20725 -0.05900
C 	C 	0.65698 0.12414 0.18259 -0.03100
C 	C 	0.69361 0.08414 0.17887 -0.06100
H 	H 	0.67415 0.01223 0.17443 0.04000
H 	H 	0.69609 0.03504 0.12235 0.04100
H 	H 	0.58513 0.13324 0.21006 0.04700
H 	H 	0.62194 0.09567 0.24249 0.03500
H 	H 	0.70448 0.07335 0.21353 0.03200
H 	H 	0.72599 0.09539 0.16099 0.04000
C 	C 	0.64224 0.13751 0.13358 -0.05800
H 	H 	0.67314 0.15072 0.11464 0.02900
H 	H 	0.61529 0.16547 0.13505 0.04600
C 	C 	0.62201 0.09614 0.10712 -0.05800
H 	H 	0.58548 0.10441 0.09577 0.03000
H 	H 	0.64357 0.08972 0.07588 0.03900
C 	C 	0.59216 0.06418 0.18067 -0.05700
H 	H 	0.55503 0.07189 0.17120 0.05000
H 	H 	0.59167 0.03404 0.20327 0.04800
C 	C 	0.34454 0.13538 0.18501 -0.06000
C 	C 	0.38214 0.17372 0.18420 -0.03300
C 	C 	0.44582 0.11197 0.18337 -0.05100
C 	C 	0.41384 0.09906 0.14212 -0.04600
C 	C 	0.36323 0.09156 0.16049 -0.05300
H 	H 	0.33511 0.12741 0.22084 0.02900
H 	H 	0.31162 0.14697 0.16788 0.04200
H 	H 	0.48244 0.11845 0.17163 0.04500
H 	H 	0.44764 0.08325 0.20772 0.04300
H 	H 	0.36324 0.06261 0.18460 0.04100
H 	H 	0.33910 0.08262 0.13201 0.03100
C 	C 	0.41255 0.13992 0.10912 -0.05600
H 	H 	0.38928 0.13209 0.07963 0.01200
H 	H 	0.44848 0.14599 0.09523 0.02800
C 	C 	0.39437 0.18368 0.13381 -0.05800
H 	H 	0.42178 0.21043 0.13208 0.04500
H 	H 	0.36262 0.19702 0.11589 0.04300
C 	C 	0.42703 0.15535 0.20816 -0.06300
H 	H 	0.45504 0.18159 0.20843 0.04400
H 	H 	0.41896 0.14739 0.24428 0.03800
C 	C 	0.44954 0.85226 0.10701 -0.05900
C 	C 	0.41330 0.89052 0.09514 -0.03400
C 	C 	0.35153 0.82842 0.08316 -0.06000
C 	C 	0.37032 0.81920 0.13191 -0.03200
C 	C 	0.42445 0.81062 0.12838 -0.05800
H 	H 	0.46890 0.84098 0.07573 0.03200
H 	H 	0.47615 0.86564 0.13137 0.04400
H 	H 	0.31279 0.83513 0.08436 0.03300
H 	H 	0.35750 0.79786 0.06086 0.04100
H 	H 	0.43181 0.77954 0.10722 0.04000
H 	H 	0.43927 0.80426 0.16280 0.04800
C 	C 	0.36190 0.86335 0.16102 -0.06500
H 	H 	0.37545 0.85844 0.19618 0.04400
H 	H 	0.32340 0.87076 0.16402 0.02700
C 	C 	0.38681 0.90483 0.13957 -0.05600
H 	H 	0.36013 0.93191 0.13215 0.03200
H 	H 	0.41200 0.91952 0.16460 0.04500
C 	C 	0.37642 0.86961 0.06185 -0.05600
H 	H 	0.34926 0.89574 0.05290 0.03500
H 	H 	0.39406 0.85852 0.02955 0.04100
C 	C 	0.65230 0.89300 0.91057 -0.05500
C 	C 	0.60312 0.90533 0.89075 -0.04400
C 	C 	0.63640 0.88886 0.81113 -0.05800
C 	C 	0.64744 0.84458 0.83791 -0.03900
C 	C 	0.67813 0.85763 0.87979 -0.06000
H 	H 	0.67438 0.92400 0.91359 0.02100
H 	H 	0.64832 0.87906 0.94543 0.00500
H 	H 	0.61398 0.88091 0.78107 0.04200
H 	H 	0.66970 0.90363 0.79814 0.02900
H 	H 	0.71229 0.87180 0.86820 0.01200
H 	H 	0.68654 0.82695 0.90030 0.02100
C 	C 	0.60020 0.82524 0.85554 -0.05600
H 	H 	0.60678 0.79355 0.87512 0.04000
H 	H 	0.57726 0.81591 0.82624 0.04100
C 	C 	0.57427 0.86071 0.88646 -0.05600
H 	H 	0.53886 0.86813 0.87181 0.04100
H 	H 	0.56857 0.84601 0.92075 0.02400
C 	C 	0.61037 0.92450 0.84221 -0.05400
H 	H 	0.57563 0.93348 0.82696 0.03800
H 	H 	0.63123 0.95636 0.84405 0.03500
C 	C 	0.54875 0.12818 0.90846 -0.06100
C 	C 	0.58586 0.10640 0.94077 -0.02700
C 	C 	0.65037 0.13230 0.88629 -0.06400
C 	C 	0.62199 0.17694 0.89695 -0.03400
C 	C 	0.56982 0.16906 0.88283 -0.05700
H 	H 	0.53646 0.10254 0.88299 0.05100
H 	H 	0.51730 0.13985 0.92841 0.02900
H 	H 	0.68781 0.13623 0.89675 0.04400
H 	H 	0.65036 0.12515 0.84895 0.03000
H 	H 	0.56773 0.16249 0.84546 0.03700
H 	H 	0.54814 0.20019 0.89046 0.03800
C 	C 	0.62288 0.18538 0.94932 -0.05700
H 	H 	0.60224 0.21684 0.95817 0.03200
H 	H 	0.65972 0.19095 0.96091 0.03900
C 	C 	0.60202 0.14411 0.97495 -0.06100
H 	H 	0.62924 0.13012 0.99835 0.03200
H 	H 	0.57165 0.15585 0.99637 0.02500
C 	C 	0.62920 0.09126 0.91158 -0.05800
H 	H 	0.65669 0.07565 0.93369 0.03100
H 	H 	0.61877 0.06467 0.88625 0.05000
C 	C 	0.31167 0.93178 0.84679 -0.06100
C 	C 	0.34244 0.88744 0.84360 -0.03200
C 	C 	0.41507 0.93644 0.85705 -0.06000
C 	C 	0.38229 0.94925 0.89808 -0.03600
C 	C 	0.33501 0.96789 0.87851 -0.05500
H 	H 	0.30675 0.94622 0.81225 0.02600
H 	H 	0.27599 0.92398 0.86028 0.03900
H 	H 	0.44925 0.92237 0.86957 0.04400
H 	H 	0.42311 0.96746 0.83719 0.04100
H 	H 	0.34143 0.99955 0.85911 0.02700
H 	H 	0.31023 0.97709 0.90674 0.02800
C 	C 	0.37181 0.90485 0.92426 -0.06000
H 	H 	0.34789 0.91250 0.95359 0.02700
H 	H 	0.40508 0.89043 0.93848 0.02400
C 	C 	0.34869 0.86885 0.89255 -0.05800
H 	H 	0.37100 0.83730 0.89167 0.04300
H 	H 	0.31381 0.85938 0.90683 0.04100
C 	C 	0.39183 0.90065 0.82532 -0.05900
H 	H 	0.41534 0.87000 0.82285 0.03600
H 	H 	0.38851 0.91462 0.79041 0.02000
C 	C 	0.11147 0.06465 0.66189 -0.05900
C 	C 	0.09267 0.08680 0.61726 -0.03200
C 	C 	0.08563 0.16262 0.66214 -0.05600
C 	C 	0.13784 0.14780 0.67027 -0.03400
C 	C 	0.13734 0.10015 0.69283 -0.05900
H 	H 	0.08162 0.04985 0.68112 0.03300
H 	H 	0.13638 0.03611 0.65343 0.03900
H 	H 	0.08435 0.19646 0.64547 0.03200
H 	H 	0.06700 0.16660 0.69539 0.03100
H 	H 	0.11934 0.10258 0.72652 0.04200
H 	H 	0.17413 0.08816 0.69910 0.03600
C 	C 	0.16198 0.14173 0.62284 -0.05900
H 	H 	0.19915 0.12990 0.62723 0.02800
H 	H 	0.16324 0.17498 0.60507 0.02900
C 	C 	0.13550 0.10719 0.59221 -0.05900
H 	H 	0.12302 0.12481 0.56114 0.04600
H 	H 	0.16043 0.07952 0.58117 0.02800
C 	C 	0.05930 0.12709 0.63166 -0.05900
H 	H 	0.04536 0.14444 0.60094 0.03900
H 	H 	0.02845 0.11382 0.65058 0.02600
C 	C 	0.13240 0.14877 0.36099 -0.06100
C 	C 	0.17984 0.15961 0.38482 -0.03400
C 	C 	0.14106 0.14482 0.46154 -0.05500
C 	C 	0.13076 0.10094 0.43321 -0.03800
C 	C 	0.10342 0.11506 0.38954 -0.05500
H 	H 	0.11125 0.18061 0.35627 0.02400
H 	H 	0.13923 0.13379 0.32651 0.01900
H 	H 	0.16230 0.13606 0.49205 0.03800
H 	H 	0.10743 0.16083 0.47377 0.03600
H 	H 	0.06909 0.13155 0.39900 0.03700
H 	H 	0.09544 0.08430 0.36844 0.03000
C 	C 	0.17865 0.07933 0.41797 -0.05900
H 	H 	0.17247 0.04820 0.39681 0.02100
H 	H 	0.19936 0.06856 0.44821 0.02500
C 	C 	0.20770 0.11384 0.39026 -0.05800
H 	H 	0.24170 0.11996 0.40804 0.04300
H 	H 	0.21633 0.09888 0.35615 0.03100
C 	C 	0.16880 0.17942 0.43302 -0.05700
H 	H 	0.20220 0.18807 0.45081 0.04100
H 	H 	0.14770 0.21156 0.43040 0.03900
C 	C 	0.91701 0.84733 0.64066 -0.05700
C 	C 	0.89829 0.85780 0.59232 -0.03900
C 	C 	0.85939 0.78004 0.59052 -0.05700
C 	C 	0.83970 0.80327 0.63452 -0.03400
C 	C 	0.88226 0.81579 0.66573 -0.05900
H 	H 	0.95230 0.83034 0.63838 0.05200
H 	H 	0.92125 0.87960 0.66054 0.03400
H 	H 	0.82993 0.77057 0.56740 0.03100
H 	H 	0.87865 0.74793 0.59899 0.04800
H 	H 	0.90172 0.78443 0.67616 0.05300
H 	H 	0.86927 0.83312 0.69741 0.03100
C 	C 	0.81390 0.84813 0.62159 -0.05900
H 	H 	0.79908 0.86525 0.65263 0.02500
H 	H 	0.78391 0.84079 0.59836 0.03600
C 	C 	0.84839 0.88039 0.59757 -0.05800
H 	H 	0.83365 0.88913 0.56364 0.02000
H 	H 	0.85090 0.91284 0.61750 0.01300
C 	C 	0.89310 0.81213 0.56555 -0.05500
H 	H 	0.87884 0.81860 0.53092 0.04100
H 	H 	0.92820 0.79512 0.56119 0.04600
C 	C 	0.86681 0.06662 0.40302 -0.06400
C 	C 	0.89754 0.09477 0.43680 -0.02800
C 	C 	0.90256 0.15652 0.37650 -0.05100
C 	C 	0.84877 0.14902 0.38270 -0.04400
C 	C 	0.83827 0.09836 0.37149 -0.05500
H 	H 	0.88974 0.04339 0.38205 0.03800
H 	H 	0.84177 0.04481 0.42186 0.03500
H 	H 	0.91116 0.19272 0.38434 0.04300
H 	H 	0.91300 0.14961 0.34047 0.04700
H 	H 	0.84754 0.09020 0.33539 0.04200
H 	H 	0.79991 0.09187 0.37568 0.02100
C 	C 	0.83607 0.15848 0.43364 -0.05300
H 	H 	0.79769 0.15329 0.43936 0.01300
H 	H 	0.84371 0.19455 0.44305 0.03700
C 	C 	0.86455 0.12692 0.46510 -0.06000
H 	H 	0.88570 0.14787 0.48925 0.04500
H 	H 	0.83960 0.10678 0.48586 0.03900
C 	C 	0.93133 0.12461 0.40832 -0.06400
H 	H 	0.95365 0.14571 0.43126 0.05700
H 	H 	0.95547 0.10240 0.38757 0.04700
C 	C 	0.18060 0.80140 0.62425 -0.05900
C 	C 	0.14959 0.80655 0.66817 -0.03600
C 	C 	0.13623 0.88994 0.64769 -0.05800
C 	C 	0.12138 0.86318 0.60396 -0.04000
C 	C 	0.16415 0.83439 0.58700 -0.05400
H 	H 	0.21821 0.80799 0.63254 0.02900
H 	H 	0.17879 0.76595 0.61028 0.04900
H 	H 	0.10603 0.91109 0.66061 0.02300
H 	H 	0.16534 0.91368 0.63978 0.03000
H 	H 	0.19385 0.85692 0.57771 0.03300
H 	H 	0.15452 0.81465 0.55579 0.03500
C 	C 	0.08115 0.83012 0.61737 -0.05800
H 	H 	0.06979 0.80978 0.58715 0.04200
H 	H 	0.04984 0.85003 0.62976 0.02800
C 	C 	0.09774 0.79706 0.65495 -0.05600
H 	H 	0.07441 0.80119 0.68533 0.03100
H 	H 	0.09437 0.76120 0.64251 0.03600
C 	C 	0.15276 0.85668 0.68538 -0.05900
H 	H 	0.13042 0.86194 0.71629 0.03300
H 	H 	0.18970 0.86444 0.69520 0.01600
C 	C 	0.92161 0.78356 0.41172 -0.05500
C 	C 	0.89216 0.80346 0.37208 -0.03300
C 	C 	0.88352 0.87747 0.41965 -0.06200
C 	C 	0.93790 0.86985 0.41780 -0.02400
C 	C 	0.94881 0.82162 0.43739 -0.06300
H 	H 	0.89814 0.76606 0.43619 0.04100
H 	H 	0.94707 0.75746 0.39822 0.04600
H 	H 	0.87399 0.91128 0.40530 0.02800
H 	H 	0.87098 0.87763 0.45552 0.03100
H 	H 	0.93945 0.82095 0.47412 0.05400
H 	H 	0.98731 0.81404 0.43487 0.05700
C 	C 	0.95256 0.86828 0.36662 -0.06200
H 	H 	0.99135 0.86282 0.36366 0.04400
H 	H 	0.94416 0.90160 0.35068 0.03800
C 	C 	0.92652 0.82915 0.34011 -0.06000
H 	H 	0.90661 0.84388 0.31109 0.03600
H 	H 	0.95305 0.80475 0.32545 0.05500
C 	C 	0.85733 0.83978 0.39265 -0.06100
H 	H 	0.83657 0.85570 0.36481 0.03100
H 	H 	0.83162 0.82344 0.41582 0.03100
C 	C 	0.07108 0.58444 0.11587 -0.05900
C 	C 	0.10685 0.55793 0.08484 -0.03500
C 	C 	0.14919 0.63378 0.07259 -0.05700
C 	C 	0.14716 0.62975 0.12538 -0.03700
C 	C 	0.09441 0.62610 0.13936 -0.05600
H 	H 	0.04049 0.59630 0.09529 0.02500
H 	H 	0.05697 0.56155 0.14244 0.02800
H 	H 	0.18651 0.63598 0.06111 0.02400
H 	H 	0.13084 0.66565 0.06190 0.03900
H 	H 	0.07500 0.65784 0.12999 0.03700
H 	H 	0.09118 0.62269 0.17694 0.04200
C 	C 	0.17259 0.58444 0.13824 -0.06000
H 	H 	0.17159 0.57991 0.17581 0.03500
H 	H 	0.21041 0.58569 0.12812 0.02100
C 	C 	0.14927 0.54279 0.11471 -0.05600
H 	H 	0.17589 0.52420 0.09329 0.03800
H 	H 	0.13743 0.51874 0.14128 0.03900
C 	C 	0.12561 0.59192 0.04894 -0.05800
H 	H 	0.15180 0.57438 0.02622 0.04300
H 	H 	0.09609 0.60396 0.02709 0.03200
C 	C 	0.15142 0.33633 0.06689 -0.05700
C 	C 	0.11019 0.36087 0.09325 -0.03800
C 	C 	0.11680 0.29958 0.15356 -0.06100
C 	C 	0.16753 0.31868 0.15045 -0.03200
C 	C 	0.18520 0.31123 0.10069 -0.05900
H 	H 	0.13697 0.31131 0.04194 0.03700
H 	H 	0.17187 0.36154 0.04723 0.04800
H 	H 	0.10245 0.30387 0.18872 0.02400
H 	H 	0.11734 0.26233 0.14562 0.02200
H 	H 	0.18666 0.27415 0.09217 0.03800
H 	H 	0.22154 0.32455 0.09697 0.04700
C 	C 	0.16553 0.37104 0.16027 -0.05800
H 	H 	0.20148 0.38551 0.15712 0.03700
H 	H 	0.15324 0.37844 0.19569 0.04000
C 	C 	0.13187 0.39539 0.12730 -0.05600
H 	H 	0.10347 0.41323 0.14719 0.02700
H 	H 	0.15151 0.42198 0.10863 0.04700
C 	C 	0.08343 0.32412 0.12041 -0.05400
H 	H 	0.05392 0.33993 0.14043 0.02600
H 	H 	0.06774 0.29878 0.09649 0.02900
C 	C 	0.12535 0.31269 0.83802 -0.05800
C 	C 	0.17486 0.31523 0.86031 -0.03600
C 	C 	0.16668 0.40247 0.86131 -0.05500
C 	C 	0.12183 0.38643 0.88627 -0.04000
C 	C 	0.09431 0.35437 0.85320 -0.05700
H 	H 	0.12889 0.31205 0.80026 0.02600
H 	H 	0.10765 0.28065 0.84792 0.03800
H 	H 	0.18749 0.42513 0.88414 0.03700
H 	H 	0.15669 0.42274 0.83096 0.03100
H 	H 	0.08302 0.37336 0.82245 0.02800
H 	H 	0.06177 0.34219 0.87018 0.02100
C 	C 	0.13730 0.35772 0.92798 -0.06100
H 	H 	0.10568 0.34565 0.94659 0.02200
H 	H 	0.15785 0.37900 0.95231 0.04300
C 	C 	0.16804 0.31618 0.91280 -0.05600
H 	H 	0.20286 0.31795 0.93014 0.03400
H 	H 	0.15107 0.28417 0.92392 0.03200
C 	C 	0.19759 0.36103 0.84612 -0.05900
H 	H 	0.23318 0.36444 0.86161 0.03600
H 	H 	0.20248 0.36151 0.80850 0.01800
C 	C 	0.89282 0.60095 0.19411 -0.05700
C 	C 	0.85785 0.62867 0.16444 -0.03600
C 	C 	0.91141 0.61260 0.09547 -0.06300
C 	C 	0.90180 0.56441 0.11426 -0.02500
C 	C 	0.91856 0.56361 0.16487 -0.06300
H 	H 	0.91941 0.62399 0.20958 0.05200
H 	H 	0.87354 0.58472 0.22256 0.03300
H 	H 	0.89903 0.61478 0.05961 0.04500
H 	H 	0.95001 0.61904 0.09519 0.04800
H 	H 	0.95724 0.56937 0.16675 0.04800
H 	H 	0.91196 0.52951 0.17958 0.02600
C 	C 	0.84772 0.55696 0.11415 -0.06400
H 	H 	0.83968 0.52275 0.12790 0.03300
H 	H 	0.83401 0.55784 0.07869 0.04800
C 	C 	0.82209 0.59442 0.14328 -0.05600
H 	H 	0.79638 0.61271 0.12127 0.03800
H 	H 	0.80147 0.57813 0.17080 0.03200
C 	C 	0.88613 0.64994 0.12480 -0.05600
H 	H 	0.86203 0.67011 0.10272 0.02600
H 	H 	0.91280 0.67386 0.13872 0.05400
C 	C 	0.90011 0.62560 0.80516 -0.05700
C 	C 	0.86901 0.65741 0.83607 -0.04200
C 	C 	0.85058 0.58859 0.88509 -0.05400
C 	C 	0.90519 0.58953 0.88368 -0.03900
C 	C 	0.92132 0.58595 0.83303 -0.05700
H 	H 	0.87868 0.61127 0.77677 0.04300
H 	H 	0.92912 0.64535 0.78960 0.04500
H 	H 	0.83783 0.59139 0.92093 0.03900
H 	H 	0.83783 0.55555 0.87098 0.03800
H 	H 	0.90993 0.55302 0.81758 0.03300
H 	H 	0.96051 0.58667 0.83089 0.01800
C 	C 	0.92158 0.63631 0.90309 -0.05900
H 	H 	0.96078 0.63793 0.90233 0.02900
H 	H 	0.91038 0.64051 0.93929 0.03900
C 	C 	0.90048 0.67604 0.87515 -0.05400
H 	H 	0.87949 0.69890 0.89827 0.03500
H 	H 	0.92950 0.69667 0.86082 0.03900
C 	C 	0.82949 0.62831 0.85728 -0.06000
H 	H 	0.80676 0.65004 0.87996 0.02700
H 	H 	0.80667 0.61424 0.82985 0.03000
C 	C 	0.88156 0.40773 0.86310 -0.05800
C 	C 	0.89352 0.38930 0.91105 -0.03300
C 	C 	0.81358 0.34912 0.91015 -0.05900
C 	C 	0.83799 0.33177 0.86539 -0.03100
C 	C 	0.84963 0.37432 0.83650 -0.05900
H 	H 	0.86344 0.44155 0.86634 0.04200
H 	H 	0.91454 0.41300 0.84329 0.02500
H 	H 	0.80511 0.31978 0.93219 0.04100
H 	H 	0.77966 0.36662 0.90192 0.02700
H 	H 	0.81640 0.39221 0.82667 0.02800
H 	H 	0.86797 0.36383 0.80437 0.03900
C 	C 	0.88508 0.30808 0.87868 -0.05700
H 	H 	0.90384 0.29525 0.84759 0.03300
H 	H 	0.87795 0.27792 0.90014 0.04400
C 	C 	0.91734 0.34138 0.90497 -0.06000
H 	H 	0.92591 0.32706 0.93892 0.03400
H 	H 	0.95121 0.34404 0.88598 0.04600
C 	C 	0.84616 0.38276 0.93695 -0.05800
H 	H 	0.85328 0.36925 0.97151 0.03000
H 	H 	0.82759 0.41618 0.94151 0.03900
C 	C 	0.38622 0.17769 0.43488 -0.05900
C 	C 	0.40575 0.17646 0.38531 -0.03200
C 	C 	0.48134 0.13958 0.41569 -0.06000
C 	C 	0.44162 0.10835 0.43348 -0.03100
C 	C 	0.40717 0.13817 0.46281 -0.05800
H 	H 	0.39478 0.21081 0.45171 0.04000
H 	H 	0.34710 0.17483 0.43473 0.04700
H 	H 	0.50644 0.11925 0.39410 0.03100
H 	H 	0.50185 0.15386 0.44471 0.04300
H 	H 	0.42586 0.15271 0.49284 0.04900
H 	H 	0.37808 0.11686 0.47598 0.03700
C 	C 	0.41398 0.08975 0.39162 -0.05700
H 	H 	0.38474 0.06764 0.40302 0.03800
H 	H 	0.43779 0.06838 0.36966 0.03900
C 	C 	0.39309 0.12960 0.36346 -0.06000
H 	H 	0.40699 0.12719 0.32803 0.03900
H 	H 	0.35408 0.12628 0.36143 0.03200
C 	C 	0.46035 0.17947 0.38761 -0.06000
H 	H 	0.47567 0.17822 0.35266 0.04000
H 	H 	0.47063 0.21259 0.40341 0.03000
C 	C 	0.72344 0.88701 0.35912 -0.05900
C 	C 	0.68969 0.85211 0.33607 -0.03500
C 	C 	0.63736 0.85946 0.40722 -0.05900
C 	C 	0.64279 0.90964 0.39216 -0.02800
C 	C 	0.69619 0.92063 0.39123 -0.06000
H 	H 	0.75064 0.86879 0.37946 0.03300
H 	H 	0.74239 0.90649 0.33262 0.03000
H 	H 	0.59935 0.85047 0.40820 0.04800
H 	H 	0.65126 0.85521 0.44233 0.04200
H 	H 	0.71135 0.91839 0.42607 0.02900
H 	H 	0.70130 0.95620 0.37963 0.01900
C 	C 	0.62420 0.91315 0.34232 -0.06000
H 	H 	0.62768 0.94875 0.33025 0.03000
H 	H 	0.58605 0.90481 0.34112 0.04700
C 	C 	0.65191 0.87987 0.30952 -0.05800
H 	H 	0.62670 0.85632 0.29268 0.04900
H 	H 	0.66916 0.89965 0.28220 0.03400
C 	C 	0.66397 0.82619 0.37446 -0.05700
H 	H 	0.63828 0.80203 0.35928 0.05200
H 	H 	0.68986 0.80580 0.39439 0.01900
C 	C 	0.60472 0.10296 0.65898 -0.06200
C 	C 	0.62197 0.11867 0.61143 -0.03200
C 	C 	0.61608 0.20109 0.64092 -0.05800
C 	C 	0.64793 0.17711 0.67649 -0.03300
C 	C 	0.61984 0.13712 0.69707 -0.05600
H 	H 	0.56560 0.10010 0.65909 0.04000
H 	H 	0.61949 0.06850 0.66640 0.04100
H 	H 	0.63509 0.22984 0.62506 0.04700
H 	H 	0.58416 0.21594 0.65798 0.03800
H 	H 	0.58784 0.15049 0.71509 0.04100
H 	H 	0.64186 0.11903 0.72261 0.03400
C 	C 	0.69164 0.15643 0.65101 -0.06100
H 	H 	0.71507 0.13862 0.67559 0.02400
H 	H 	0.71270 0.18397 0.63545 0.04300
C 	C 	0.67649 0.12240 0.61299 -0.05800
H 	H 	0.68999 0.13395 0.57951 0.02700
H 	H 	0.69284 0.08841 0.61952 0.03700
C 	C 	0.60100 0.16721 0.60311 -0.05900
H 	H 	0.61286 0.17976 0.56941 0.03700
H 	H 	0.56176 0.16623 0.60240 0.04900
C 	C 	0.56938 0.83035 0.55919 -0.05800
C 	C 	0.59594 0.87426 0.57390 -0.03700
C 	C 	0.60699 0.83923 0.65263 -0.05900
C 	C 	0.62757 0.80227 0.61932 -0.04000
C 	C 	0.58788 0.78835 0.58575 -0.05500
H 	H 	0.53087 0.83499 0.56545 0.03500
H 	H 	0.57424 0.82375 0.52204 0.04600
H 	H 	0.63457 0.85022 0.67720 0.03500
H 	H 	0.57757 0.82485 0.67281 0.04400
H 	H 	0.55825 0.77289 0.60479 0.03600
H 	H 	0.60133 0.76206 0.56108 0.03700
C 	C 	0.66782 0.82441 0.59157 -0.06100
H 	H 	0.68364 0.79917 0.56709 0.02900
H 	H 	0.69643 0.83540 0.61497 0.02900
C 	C 	0.64935 0.86609 0.56493 -0.05600
H 	H 	0.66965 0.89675 0.57529 0.02600
H 	H 	0.65579 0.86036 0.52787 0.03600
C 	C 	0.58858 0.88129 0.62607 -0.05700
H 	H 	0.60748 0.91217 0.63818 0.03600
H 	H 	0.55045 0.88701 0.63364 0.02500
C 	C 	0.35675 0.08222 0.63464 -0.06000
C 	C 	0.40384 0.10368 0.61955 -0.03300
C 	C 	0.36305 0.18222 0.62215 -0.05800
C 	C 	0.35297 0.16275 0.66998 -0.03100
C 	C 	0.32701 0.11656 0.66360 -0.05900
H 	H 	0.33598 0.07149 0.60430 0.02800
H 	H 	0.36397 0.05104 0.65480 0.02500
H 	H 	0.38268 0.21470 0.62550 0.04300
H 	H 	0.32927 0.19030 0.60456 0.03100
H 	H 	0.29251 0.12204 0.64638 0.03800
H 	H 	0.31942 0.10161 0.69743 0.03100
C 	C 	0.40115 0.15237 0.69308 -0.06000
H 	H 	0.39521 0.13791 0.72742 0.03100
H 	H 	0.42119 0.18443 0.69793 0.04500
C 	C 	0.43105 0.11803 0.66347 -0.05700
H 	H 	0.46499 0.13412 0.65410 0.04500
H 	H 	0.43978 0.08737 0.68387 0.03800
C 	C 	0.39218 0.14777 0.59271 -0.05700
H 	H 	0.42541 0.16398 0.58141 0.04200
H 	H 	0.37167 0.13922 0.56157 0.04200
C 	C 	0.32488 0.87654 0.37860 -0.05800
C 	C 	0.35750 0.84066 0.35471 -0.04000
C 	C 	0.42520 0.89717 0.36226 -0.06200
C 	C 	0.40645 0.89284 0.41190 -0.03100
C 	C 	0.35328 0.90695 0.41196 -0.05900
H 	H 	0.30739 0.89835 0.35273 0.02000
H 	H 	0.29645 0.85918 0.39768 0.01200
H 	H 	0.46309 0.88686 0.36044 0.04700
H 	H 	0.42272 0.93336 0.35149 0.03100
H 	H 	0.34934 0.94333 0.40216 0.02100
H 	H 	0.33803 0.90377 0.44671 0.02900
C 	C 	0.41043 0.84201 0.42532 -0.05800
H 	H 	0.39707 0.83755 0.46065 0.03800
H 	H 	0.44804 0.83058 0.42493 0.04600
C 	C 	0.38205 0.81167 0.39218 -0.05400
H 	H 	0.40602 0.78573 0.37603 0.04100
H 	H 	0.35544 0.79283 0.41223 0.03600
C 	C 	0.39653 0.86666 0.32876 -0.05400
H 	H 	0.42074 0.84187 0.31123 0.04500
H 	H 	0.38039 0.88840 0.30206 0.04000
C 	C 	0.39839 0.69969 0.85974 -0.05700
C 	C 	0.34986 0.68231 0.84350 -0.03500
C 	C 	0.38356 0.60093 0.84176 -0.05500
C 	C 	0.39419 0.61874 0.89044 -0.03900
C 	C 	0.42446 0.66253 0.88696 -0.05700
H 	H 	0.42038 0.70929 0.82997 0.03700
H 	H 	0.39366 0.73087 0.88144 0.03900
H 	H 	0.36131 0.56999 0.84324 0.04000
H 	H 	0.41697 0.59084 0.82405 0.04500
H 	H 	0.45872 0.65464 0.86975 0.04400
H 	H 	0.43266 0.67593 0.92166 0.02400
C 	C 	0.34658 0.63231 0.91382 -0.05800
H 	H 	0.35313 0.64518 0.94903 0.01100
H 	H 	0.32361 0.60199 0.91657 0.02500
C 	C 	0.32043 0.66968 0.88612 -0.05900
H 	H 	0.28523 0.65710 0.87548 0.02200
H 	H 	0.31439 0.70033 0.90826 0.03900
C 	C 	0.35782 0.63805 0.81420 -0.05900
H 	H 	0.32334 0.62489 0.80210 0.02500
H 	H 	0.37935 0.64528 0.78344 0.04200
C 	C 	0.42539 0.41697 0.20237 -0.05600
C 	C 	0.38370 0.39048 0.18054 -0.03300
C 	C 	0.35656 0.46460 0.14384 -0.05400
C 	C 	0.40890 0.45911 0.12842 -0.03800
C 	C 	0.43997 0.45729 0.17194 -0.05900
H 	H 	0.41507 0.43035 0.23668 0.04000
H 	H 	0.45627 0.39363 0.20695 0.03800
H 	H 	0.33283 0.46560 0.11373 0.04100
H 	H 	0.35150 0.49742 0.16285 0.03500
H 	H 	0.43628 0.48988 0.19160 0.04400
H 	H 	0.47779 0.45323 0.16247 0.04500
C 	C 	0.41455 0.41293 0.10238 -0.06100
H 	H 	0.45179 0.40787 0.09110 0.02500
H 	H 	0.39242 0.41300 0.07111 0.03900
C 	C 	0.39993 0.37284 0.13280 -0.05800
H 	H 	0.37101 0.35386 0.11576 0.04900
H 	H 	0.43024 0.34862 0.13633 0.03900
C 	C 	0.34194 0.42459 0.17434 -0.06100
H 	H 	0.31133 0.40702 0.15860 0.04100
H 	H 	0.33002 0.43815 0.20812 0.03100
C 	C 	0.68593 0.66522 0.08129 -0.05600
C 	C 	0.66186 0.68090 0.12677 -0.03300
C 	C 	0.58341 0.65392 0.09252 -0.06000
C 	C 	0.61610 0.61097 0.08731 -0.02800
C 	C 	0.65959 0.62490 0.05861 -0.06300
H 	H 	0.68682 0.69410 0.05712 0.03900
H 	H 	0.72317 0.65473 0.08777 0.03200
H 	H 	0.55197 0.64565 0.11343 0.04700
H 	H 	0.57036 0.66443 0.05848 0.03700
H 	H 	0.64813 0.63466 0.02381 0.04000
H 	H 	0.68457 0.59550 0.05453 0.04200
C 	C 	0.63399 0.59839 0.13563 -0.05700
H 	H 	0.65804 0.56811 0.13343 0.04400
H 	H 	0.60364 0.58882 0.15745 0.04400
C 	C 	0.66058 0.63885 0.15845 -0.06500
H 	H 	0.64287 0.64830 0.19118 0.04400
H 	H 	0.69720 0.62775 0.16685 0.03100
C 	C 	0.61002 0.69451 0.11555 -0.05800
H 	H 	0.59118 0.70522 0.14731 0.04700
H 	H 	0.60951 0.72428 0.09247 0.03900
C 	C 	0.56288 0.39146 0.14243 -0.06200
C 	C 	0.59678 0.39663 0.10120 -0.02900
C 	C 	0.66327 0.36338 0.14913 -0.05200
C 	C 	0.62390 0.32732 0.15180 -0.05300
C 	C 	0.57876 0.35078 0.17211 -0.05000
H 	H 	0.56246 0.42319 0.16369 0.04700
H 	H 	0.52629 0.38585 0.13024 0.03600
H 	H 	0.69596 0.34766 0.13436 0.00600
H 	H 	0.67221 0.37611 0.18391 0.02600
H 	H 	0.58555 0.36347 0.20736 0.04200
H 	H 	0.54974 0.32571 0.17422 0.03700
C 	C 	0.61226 0.31064 0.10273 -0.05000
H 	H 	0.58391 0.28477 0.10369 0.03900
H 	H 	0.64380 0.29397 0.08671 0.02900
C 	C 	0.59626 0.35120 0.07315 -0.06400
H 	H 	0.62015 0.35322 0.04313 0.04300
H 	H 	0.56013 0.34494 0.05993 0.03400
C 	C 	0.64740 0.40395 0.11965 -0.06100
H 	H 	0.67272 0.40764 0.09092 0.03900
H 	H 	0.64857 0.43604 0.14032 0.04100
C 	C 	0.61381 0.63430 0.89680 -0.05800
C 	C 	0.61991 0.58481 0.87760 -0.03400
C 	C 	0.62620 0.61828 0.79777 -0.05900
C 	C 	0.66421 0.64401 0.82584 -0.03500
C 	C 	0.63934 0.66879 0.86643 -0.05700
H 	H 	0.57564 0.64355 0.89899 0.03100
H 	H 	0.62830 0.63689 0.93193 0.03500
H 	H 	0.64312 0.59982 0.76852 0.02900
H 	H 	0.60025 0.64298 0.78347 0.04500
H 	H 	0.61333 0.69436 0.85371 0.04600
H 	H 	0.66561 0.68774 0.88722 0.02900
C 	C 	0.69917 0.60779 0.84525 -0.05700
H 	H 	0.72609 0.62472 0.86684 0.03600
H 	H 	0.71807 0.58966 0.81692 0.03100
C 	C 	0.67326 0.57298 0.87475 -0.06000
H 	H 	0.67854 0.53811 0.85996 0.02400
H 	H 	0.68915 0.57292 0.90939 0.02900
C 	C 	0.59985 0.58370 0.82827 -0.05800
H 	H 	0.60369 0.54875 0.81333 0.03800
H 	H 	0.56153 0.59244 0.82885 0.04700
C 	C 	0.40324 0.42246 0.86389 -0.05900
C 	C 	0.41905 0.41112 0.91325 -0.03300
C 	C 	0.35506 0.34978 0.91370 -0.06300
C 	C 	0.38422 0.33718 0.87027 -0.03100
C 	C 	0.38308 0.37962 0.83895 -0.06100
H 	H 	0.37594 0.45009 0.86483 0.03900
H 	H 	0.43365 0.43541 0.84408 0.04600
H 	H 	0.35516 0.32066 0.93761 0.03300
H 	H 	0.31761 0.35659 0.90436 0.03200
H 	H 	0.34622 0.38693 0.82801 0.03400
H 	H 	0.40412 0.37250 0.80753 0.04600
C 	C 	0.43626 0.32904 0.88509 -0.05800
H 	H 	0.45837 0.32058 0.85469 0.03500
H 	H 	0.43849 0.29929 0.90814 0.03600
C 	C 	0.45645 0.37194 0.90999 -0.05900
H 	H 	0.46821 0.36246 0.94477 0.02500
H 	H 	0.48813 0.38380 0.89136 0.03000
C 	C 	0.37520 0.39229 0.93857 -0.05600
H 	H 	0.38492 0.38285 0.97395 0.03400
H 	H 	0.34724 0.41923 0.94120 0.02800
C 	C 	0.15200 0.32581 0.38145 -0.05100
C 	C 	0.19923 0.35159 0.37772 -0.04500
C 	C 	0.15231 0.42688 0.37358 -0.05500
C 	C 	0.13305 0.40383 0.41659 -0.04000
C 	C 	0.11331 0.35638 0.40296 -0.05700
H 	H 	0.13996 0.31412 0.34721 -0.00000
H 	H 	0.15690 0.29504 0.40275 0.04200
H 	H 	0.16755 0.46061 0.38265 0.04200
H 	H 	0.12322 0.43333 0.34897 0.02700
H 	H 	0.08411 0.36004 0.37794 0.03300
H 	H 	0.09855 0.33947 0.43348 0.02600
C 	C 	0.17524 0.39588 0.44985 -0.05800
H 	H 	0.16251 0.37913 0.48126 0.02700
H 	H 	0.19051 0.42913 0.46041 0.04100
C 	C 	0.21464 0.36537 0.42666 -0.05400
H 	H 	0.24827 0.38439 0.42537 0.02700
H 	H 	0.22104 0.33436 0.44728 0.03900
C 	C 	0.19041 0.39654 0.35076 -0.05700
H 	H 	0.22381 0.41586 0.34815 0.03000
H 	H 	0.17864 0.38899 0.31534 0.04000
C 	C 	0.85278 0.56088 0.64747 -0.05700
C 	C 	0.85304 0.60851 0.62501 -0.03600
C 	C 	0.94015 0.59526 0.60570 -0.06100
C 	C 	0.91523 0.55293 0.58490 -0.02800
C 	C 	0.88883 0.52834 0.62374 -0.05900
H 	H 	0.86182 0.56393 0.68424 0.04200
H 	H 	0.81690 0.54608 0.64528 0.02900
H 	H 	0.95942 0.61364 0.57863 0.04200
H 	H 	0.96658 0.58439 0.63144 0.04700
H 	H 	0.91452 0.51543 0.64928 0.03700
H 	H 	0.86990 0.49827 0.60974 0.04700
C 	C 	0.87801 0.57000 0.55008 -0.06300
H 	H 	0.85914 0.54070 0.53439 0.04300
H 	H 	0.89582 0.58825 0.52199 0.03000
C 	C 	0.84146 0.60216 0.57357 -0.05600
H 	H 	0.84162 0.63562 0.55613 0.03400
H 	H 	0.80550 0.58791 0.56955 0.01900
C 	C 	0.90361 0.62797 0.62889 -0.05500
H 	H 	0.90505 0.66197 0.61261 0.04600
H 	H 	0.91312 0.63299 0.66537 0.04800
C 	C 	0.10856 0.58992 0.69493 -0.06000
C 	C 	0.15693 0.60836 0.67917 -0.03200
C 	C 	0.17117 0.53332 0.63568 -0.05300
C 	C 	0.12281 0.55085 0.61777 -0.04300
C 	C 	0.08861 0.55643 0.65903 -0.05700
H 	H 	0.11257 0.57234 0.72808 0.01700
H 	H 	0.08276 0.61845 0.70029 0.02900
H 	H 	0.19657 0.52929 0.60689 0.03800
H 	H 	0.16728 0.49917 0.65122 0.03400
H 	H 	0.08278 0.52290 0.67531 0.01500
H 	H 	0.05362 0.56918 0.64728 0.01600
C 	C 	0.12991 0.59864 0.59677 -0.05400
H 	H 	0.09573 0.61221 0.58375 0.03100
H 	H 	0.15470 0.59610 0.56735 0.04600
C 	C 	0.14991 0.63221 0.63268 -0.05900
H 	H 	0.18415 0.64561 0.62035 0.04700
H 	H 	0.12532 0.66195 0.63660 0.04600
C 	C 	0.19121 0.56700 0.67172 -0.06000
H 	H 	0.22624 0.57885 0.65990 0.04500
H 	H 	0.19684 0.54903 0.70442 0.03100
C 	C 	0.93557 0.34680 0.64949 -0.06000
C 	C 	0.91053 0.36073 0.60465 -0.03400
C 	C 	0.86394 0.28694 0.60866 -0.05600
C 	C 	0.85462 0.31066 0.65560 -0.03500
C 	C 	0.90285 0.31796 0.67937 -0.05900
H 	H 	0.96839 0.32697 0.64145 0.02900
H 	H 	0.94620 0.37759 0.66935 0.03100
H 	H 	0.82994 0.28130 0.59072 0.04100
H 	H 	0.88073 0.25284 0.61359 0.04300
H 	H 	0.92049 0.28457 0.68598 0.03700
H 	H 	0.89740 0.33535 0.71298 0.02900
C 	C 	0.83184 0.35828 0.64695 -0.06000
H 	H 	0.82462 0.37622 0.67996 0.03300
H 	H 	0.79744 0.35451 0.62921 0.04700
C 	C 	0.86461 0.38754 0.61746 -0.05600
H 	H 	0.84575 0.39807 0.58603 0.04200
H 	H 	0.87321 0.41922 0.63683 0.04300
C 	C 	0.89657 0.31643 0.57860 -0.05800
H 	H 	0.87788 0.32511 0.54652 0.04500
H 	H 	0.92878 0.29638 0.56902 0.04000
C 	C 	0.16349 0.64197 0.36236 -0.06000
C 	C 	0.12380 0.67307 0.34287 -0.04000
C 	C 	0.07219 0.60236 0.33699 -0.05800
C 	C 	0.08813 0.60299 0.38779 -0.03300
C 	C 	0.14281 0.60138 0.38864 -0.05600
H 	H 	0.18622 0.62865 0.33408 0.03200
H 	H 	0.18642 0.66204 0.38569 0.02800
H 	H 	0.03300 0.60371 0.33510 0.01400
H 	H 	0.08399 0.57004 0.31990 0.03100
H 	H 	0.15600 0.56876 0.37309 0.04100
H 	H 	0.15560 0.60245 0.42444 0.04400
C 	C 	0.07133 0.64918 0.40935 -0.06100
H 	H 	0.08243 0.65148 0.44562 0.04000
H 	H 	0.03213 0.65149 0.40887 0.02100
C 	C 	0.09211 0.68998 0.38318 -0.05500
H 	H 	0.06285 0.71186 0.37019 0.03200
H 	H 	0.11288 0.71132 0.40726 0.03600
C 	C 	0.09296 0.64327 0.31080 -0.05900
H 	H 	0.06366 0.66426 0.29656 0.04100
H 	H 	0.11448 0.63019 0.28153 0.04000
C 	C 	0.79368 0.37395 0.37876 -0.05700
C 	C 	0.82130 0.33819 0.34895 -0.03300
C 	C 	0.88359 0.39852 0.33520 -0.06000
C 	C 	0.88034 0.39641 0.38807 -0.02800
C 	C 	0.82841 0.40799 0.40192 -0.06200
H 	H 	0.76806 0.39306 0.35736 0.03300
H 	H 	0.77307 0.35645 0.40549 0.03300
H 	H 	0.92005 0.39011 0.32338 0.04300
H 	H 	0.87517 0.43371 0.32372 0.02700
H 	H 	0.81924 0.44344 0.39182 0.03200
H 	H 	0.82425 0.40631 0.43955 0.04400
C 	C 	0.89150 0.34683 0.40267 -0.06100
H 	H 	0.88908 0.34413 0.44040 0.04300
H 	H 	0.92828 0.33711 0.39280 0.04500
C 	C 	0.85702 0.31308 0.38031 -0.05700
H 	H 	0.87769 0.28699 0.36052 0.05500
H 	H 	0.83773 0.29475 0.40742 0.03900
C 	C 	0.84935 0.36452 0.31250 -0.05900
H 	H 	0.86996 0.34031 0.29042 0.04600
H 	H 	0.82453 0.38332 0.28997 0.02900
C 	C 	0.39270 0.58410 0.32397 -0.05900
C 	C 	0.37561 0.58511 0.37437 -0.03100
C 	C 	0.35687 0.67028 0.36593 -0.05700
C 	C 	0.32928 0.64767 0.32628 -0.03200
C 	C 	0.36537 0.62069 0.29574 -0.05900
H 	H 	0.43119 0.59090 0.32243 0.04800
H 	H 	0.38716 0.54967 0.30864 0.04000
H 	H 	0.33214 0.68970 0.38873 0.03300
H 	H 	0.38246 0.69517 0.35234 0.04900
H 	H 	0.39104 0.64453 0.28053 0.04700
H 	H 	0.34662 0.60368 0.26707 0.03100
C 	C 	0.29483 0.61259 0.34693 -0.05700
H 	H 	0.27428 0.59577 0.31933 0.03200
H 	H 	0.26917 0.63023 0.37011 0.03600
C 	C 	0.32178 0.57605 0.37440 -0.06200
H 	H 	0.30788 0.57620 0.40991 0.03100
H 	H 	0.31485 0.54167 0.35952 0.02600
C 	C 	0.38371 0.63402 0.39389 -0.05900
H 	H 	0.37156 0.63660 0.42994 0.04100
H 	H 	0.42207 0.64160 0.39374 0.03500
C 	C 	0.57907 0.38571 0.68593 -0.05900
C 	C 	0.63325 0.37871 0.67911 -0.02900
C 	C 	0.62120 0.39539 0.59468 -0.06000
C 	C 	0.59804 0.43764 0.61895 -0.03200
C 	C 	0.55855 0.42000 0.65084 -0.06000
H 	H 	0.56071 0.35260 0.68190 0.04000
H 	H 	0.57169 0.39855 0.72111 0.02800
H 	H 	0.65014 0.40628 0.57175 0.03700
H 	H 	0.59469 0.37789 0.57293 0.03000
H 	H 	0.53073 0.40308 0.63025 0.03700
H 	H 	0.54140 0.44913 0.66945 0.04800
C 	C 	0.63602 0.46050 0.64935 -0.05600
H 	H 	0.62032 0.49044 0.66785 0.03700
H 	H 	0.66517 0.47343 0.62781 0.03700
C 	C 	0.65661 0.42622 0.68425 -0.06100
H 	H 	0.69540 0.42304 0.67893 0.04200
H 	H 	0.65091 0.43987 0.71942 0.02900
C 	C 	0.64158 0.36124 0.62957 -0.05800
H 	H 	0.68002 0.35617 0.62312 0.04600
H 	H 	0.62472 0.32747 0.62454 0.04400
C 	C 	0.37458 0.43510 0.64824 -0.05700
C 	C 	0.37951 0.41158 0.60063 -0.04200
C 	C 	0.38059 0.33481 0.63817 -0.05400
C 	C 	0.33462 0.35865 0.65595 -0.04000
C 	C 	0.34801 0.40363 0.68118 -0.05500
H 	H 	0.40995 0.44274 0.66257 0.04700
H 	H 	0.35507 0.46813 0.64526 0.03800
H 	H 	0.37244 0.30246 0.61969 0.04600
H 	H 	0.40388 0.32584 0.66728 0.04500
H 	H 	0.37096 0.39614 0.71093 0.04600
H 	H 	0.31572 0.42143 0.69431 0.03400
C 	C 	0.30263 0.37085 0.61510 -0.05900
H 	H 	0.26988 0.38855 0.62733 0.02000
H 	H 	0.29168 0.33950 0.59629 0.02700
C 	C 	0.32910 0.40172 0.58234 -0.05400
H 	H 	0.33089 0.38441 0.54836 0.03700
H 	H 	0.30895 0.43426 0.57816 0.02800
C 	C 	0.40699 0.36605 0.60568 -0.05500
H 	H 	0.41120 0.34869 0.57190 0.03600
H 	H 	0.44302 0.37232 0.61920 0.03800
C 	C 	0.68123 0.63639 0.37672 -0.05600
C 	C 	0.64885 0.65948 0.34085 -0.05200
C 	C 	0.60730 0.58379 0.32945 -0.05500
C 	C 	0.60407 0.59401 0.38120 -0.04400
C 	C 	0.65472 0.59762 0.40066 -0.05700
H 	H 	0.71360 0.62224 0.35991 0.00900
H 	H 	0.69275 0.66185 0.40272 0.00900
H 	H 	0.57138 0.58054 0.31460 0.04800
H 	H 	0.62630 0.55081 0.32311 0.04100
H 	H 	0.67446 0.56490 0.39531 0.02800
H 	H 	0.65326 0.60460 0.43800 0.00800
C 	C 	0.57821 0.64084 0.38895 -0.05800
H 	H 	0.57540 0.64872 0.42607 0.02300
H 	H 	0.54165 0.63994 0.37524 0.04500
C 	C 	0.60462 0.67925 0.36521 -0.05100
H 	H 	0.58090 0.69613 0.34020 0.04300
H 	H 	0.61469 0.70559 0.39096 0.03700
C 	C 	0.63338 0.62239 0.30558 -0.05200
H 	H 	0.60960 0.63764 0.27960 0.04700
H 	H 	0.66475 0.60797 0.28726 0.03100
C 	C 	0.40948 0.67732 0.63263 -0.05800
C 	C 	0.35515 0.67089 0.63622 -0.03200
C 	C 	0.35834 0.62955 0.55888 -0.06000
C 	C 	0.39514 0.60295 0.58773 -0.03200
C 	C 	0.43289 0.63759 0.60415 -0.05800
H 	H 	0.41717 0.71041 0.61628 0.03800
H 	H 	0.42522 0.67841 0.66730 0.03600
H 	H 	0.33032 0.60619 0.54661 0.03800
H 	H 	0.37569 0.64359 0.52815 0.03300
H 	H 	0.45159 0.65181 0.57429 0.03600
H 	H 	0.45979 0.61995 0.62536 0.04500
C 	C 	0.36978 0.58468 0.63065 -0.05500
H 	H 	0.39547 0.56595 0.65234 0.04100
H 	H 	0.34204 0.56000 0.62064 0.04300
C 	C 	0.34660 0.62405 0.65869 -0.06400
H 	H 	0.30810 0.61774 0.66169 0.04200
H 	H 	0.36114 0.62416 0.69388 0.03200
C 	C 	0.33515 0.66897 0.58699 -0.05700
H 	H 	0.29631 0.66395 0.58777 0.04600
H 	H 	0.34140 0.70193 0.56978 0.03600
C 	C 	0.55697 0.34747 0.43472 -0.06000
C 	C 	0.56770 0.39000 0.40558 -0.03400
C 	C 	0.64525 0.35098 0.38131 -0.06000
C 	C 	0.60767 0.31464 0.36962 -0.03900
C 	C 	0.58004 0.30377 0.41382 -0.05500
H 	H 	0.57035 0.35237 0.47004 0.03900
H 	H 	0.51815 0.34289 0.43731 0.02800
H 	H 	0.66525 0.35987 0.35006 0.03000
H 	H 	0.67131 0.33707 0.40598 0.03200
H 	H 	0.60407 0.28833 0.43944 0.03900
H 	H 	0.55229 0.27830 0.40622 0.03400
C 	C 	0.57212 0.33656 0.33556 -0.05800
H 	H 	0.54430 0.31165 0.32649 0.03500
H 	H 	0.59066 0.34533 0.30347 0.04100
C 	C 	0.54858 0.38066 0.35671 -0.05800
H 	H 	0.55593 0.41023 0.33455 0.04600
H 	H 	0.50965 0.37661 0.35787 0.03100
C 	C 	0.62213 0.39463 0.40198 -0.05800
H 	H 	0.63092 0.42437 0.38054 0.03600
H 	H 	0.63761 0.40116 0.43622 0.02600
