data_crystal

_cell_length_a 38.80346
_cell_length_b 36.21879
_cell_length_c 31.78864
_cell_angle_alpha 104.41451
_cell_angle_beta  116.10488
_cell_angle_gamma 110.61680

_symmetry_space_group_name_	'P 1'
_symmetry_space_group_name_H-M	'P 1'

loop_
_symmetry_equiv_pos_as_xyz
  x,y,z

loop_
_atom_site_label
_atom_site_type_symbol
_atom_site_fract_x
_atom_site_fract_y
_atom_site_fract_z
_atom_site_charge
C 	C 	0.19158 0.37099 0.01046 -0.07200
H 	H 	0.15965 0.35807 0.00593 0.04400
C 	C 	0.14995 0.34771 0.49217 -0.07400
H 	H 	0.12225 0.33243 0.49535 0.04600
Zn	Zn	0.12001 0.60511 0.02704 1.18500
Zn	Zn	0.03985 0.56781 0.90996 1.18300
O 	O 	0.05113 0.44854 0.87768 -0.50800
C 	C 	0.11368 0.66717 0.98136 0.32200
O 	O 	0.17502 0.60853 0.03786 -0.46800
O 	O 	0.05902 0.57069 0.98286 -0.78400
O 	O 	0.08695 0.50053 0.96357 -0.46200
O 	O 	0.08419 0.63158 0.93307 -0.46800
O 	O 	0.12922 0.66275 0.02476 -0.44600
Zn	Zn	0.02565 0.50704 0.95763 1.21100
O 	O 	0.04873 0.50741 0.02547 -0.90800
Zn	Zn	0.01519 0.47294 0.85283 1.17700
C 	C 	0.08233 0.46679 0.92893 0.31600
H 	H 	0.08216 0.52462 0.05061 0.16300
Zn	Zn	0.08124 0.57777 0.49399 1.18500
Zn	Zn	0.01242 0.54914 0.37844 1.18700
O 	O 	0.99601 0.46716 0.28365 -0.43900
O 	O 	0.99447 0.53176 0.30290 -0.40600
O 	O 	0.99394 0.41307 0.35694 -0.46000
C 	C 	0.12683 0.55247 0.45561 0.31300
C 	C 	0.09123 0.64386 0.45473 0.31200
O 	O 	0.13082 0.57131 0.49987 -0.46800
O 	O 	0.08681 0.53001 0.40983 -0.36700
O 	O 	0.02093 0.55413 0.44834 -0.79500
O 	O 	0.03103 0.47170 0.43884 -0.46400
O 	O 	0.06557 0.60896 0.40643 -0.45600
O 	O 	0.10344 0.63821 0.49733 -0.45900
Zn	Zn	0.97612 0.49306 0.42039 1.22300
O 	O 	0.98851 0.49564 0.48674 -0.86900
Zn	Zn	0.97456 0.44594 0.32406 1.18800
C 	C 	0.00085 0.50301 0.27763 0.26800
C 	C 	0.02443 0.43396 0.40874 0.27300
H 	H 	0.02072 0.50852 0.51506 0.13200
C 	C 	0.11256 0.18997 0.46182 -0.09400
C 	C 	0.08759 0.20245 0.42657 0.02900
C 	C 	0.10896 0.24596 0.43356 -0.06400
H 	H 	0.08995 0.25510 0.40579 0.04300
C 	C 	0.15353 0.27870 0.47819 0.00400
C 	C 	0.15788 0.22225 0.50521 0.00200
C 	C 	0.03805 0.17247 0.38671 0.03300
C 	C 	0.01987 0.14227 0.33452 -0.10700
C 	C 	0.00897 0.17627 0.39998 -0.11600
H 	H 	0.02276 0.20059 0.43965 0.04900
H 	H 	0.04206 0.13979 0.32357 0.05800
C 	C 	0.05735 0.42039 0.43179 -0.09100
C 	C 	0.04544 0.37531 0.40773 -0.00000
C 	C 	0.07918 0.36508 0.42430 -0.05700
H 	H 	0.07029 0.33090 0.40367 0.03700
C 	C 	0.12384 0.39803 0.46854 -0.00200
C 	C 	0.13496 0.44223 0.49607 -0.02200
C 	C 	0.10192 0.45331 0.47676 -0.00700
H 	H 	0.11092 0.48754 0.49707 0.03100
C 	C 	0.99761 0.33785 0.37117 0.04900
C 	C 	0.97631 0.31713 0.39192 -0.06100
H 	H 	0.99285 0.33186 0.43467 0.04900
C 	C 	0.13503 0.21256 0.98666 -0.08300
C 	C 	0.14241 0.24979 0.02524 0.03100
C 	C 	0.17260 0.29357 0.03899 -0.06200
H 	H 	0.18005 0.32220 0.07045 0.04100
C 	C 	0.18887 0.30065 0.00830 -0.00800
C 	C 	0.17565 0.26305 0.96425 -0.01200
C 	C 	0.15101 0.21944 0.95561 -0.00400
H 	H 	0.14316 0.19087 0.92373 0.03600
C 	C 	0.11205 0.24357 0.04259 0.01000
C 	C 	0.06577 0.22556 0.00497 -0.05700
C 	C 	0.03876 0.22863 0.02201 -0.03300
C 	C 	0.05767 0.24951 0.07653 -0.03200
C 	C 	0.10334 0.26637 0.11412 -0.02400
C 	C 	0.13048 0.26318 0.09730 -0.04400
H 	H 	0.00336 0.21553 0.99295 0.02900
H 	H 	0.03682 0.25226 0.08965 0.02600
H 	H 	0.11768 0.28184 0.15627 0.03200
H 	H 	0.16602 0.27696 0.12669 0.03800
H 	H 	0.05125 0.21098 0.96269 0.04100
C 	C 	0.11485 0.45207 0.94728 -0.11900
C 	C 	0.10166 0.40701 0.91931 0.04000
C 	C 	0.13374 0.39468 0.93524 -0.07900
H 	H 	0.12352 0.36020 0.91328 0.04800
C 	C 	0.17793 0.42536 0.98160 0.03000
C 	C 	0.19142 0.47053 0.00938 -0.05800
C 	C 	0.15968 0.48341 0.99233 0.02700
H 	H 	0.17019 0.51812 0.01362 0.02300
C 	C 	0.05360 0.37147 0.87718 0.03500
C 	C 	0.02376 0.35575 0.89101 -0.10700
H 	H 	0.06114 0.36322 0.81258 0.04600
H 	H 	0.03549 0.37079 0.93231 0.04200
C 	C 	0.13694 0.99222 0.38275 0.00200
H 	H 	0.08197 0.99165 0.32129 0.05000
C 	C 	0.18443 0.08919 0.95145 0.00100
C 	C 	0.16598 0.04291 0.92249 -0.05000
C 	C 	0.10603 0.03810 0.84637 -0.07500
C 	C 	0.12272 0.08354 0.87584 -0.04800
C 	C 	0.16183 0.10910 0.92827 -0.06200
H 	H 	0.18389 0.02748 0.93907 0.04500
H 	H 	0.10631 0.09934 0.85742 0.03100
Zn	Zn	0.12001 0.10511 0.02704 1.18400
Zn	Zn	0.03985 0.06781 0.90996 1.18200
C 	C 	0.11368 0.16717 0.98136 0.32100
O 	O 	0.17502 0.10853 0.03786 -0.46900
O 	O 	0.05902 0.07069 0.98286 -0.78500
O 	O 	0.08419 0.13158 0.93307 -0.46900
O 	O 	0.12922 0.16275 0.02476 -0.44700
Zn	Zn	0.02565 0.00704 0.95763 1.21100
O 	O 	0.04873 0.00741 0.02547 -0.90800
H 	H 	0.08216 0.02462 0.05061 0.16200
Zn	Zn	0.08124 0.07777 0.49399 1.18400
Zn	Zn	0.01242 0.04914 0.37844 1.18700
O 	O 	0.99447 0.03176 0.30290 -0.40700
C 	C 	0.12683 0.05247 0.45561 0.31300
C 	C 	0.09123 0.14386 0.45473 0.31100
O 	O 	0.13082 0.07131 0.49987 -0.46900
O 	O 	0.08681 0.03001 0.40983 -0.36600
O 	O 	0.02093 0.05413 0.44834 -0.79400
O 	O 	0.06557 0.10896 0.40643 -0.45600
O 	O 	0.10344 0.13821 0.49733 -0.45900
O 	O 	0.98851 0.99564 0.48674 -0.87500
C 	C 	0.00085 0.00301 0.27763 0.27200
H 	H 	0.02072 0.00852 0.51506 0.13700
C 	C 	0.11256 0.68997 0.46182 -0.09400
C 	C 	0.08759 0.70245 0.42657 0.02900
C 	C 	0.10896 0.74596 0.43356 -0.06400
C 	C 	0.15788 0.72225 0.50521 0.00200
C 	C 	0.03805 0.67247 0.38671 0.03300
C 	C 	0.01987 0.64227 0.33452 -0.10800
C 	C 	0.00897 0.67627 0.39998 -0.11700
H 	H 	0.02276 0.70059 0.43965 0.04900
H 	H 	0.04206 0.63979 0.32357 0.05800
C 	C 	0.13503 0.71256 0.98666 -0.08300
C 	C 	0.14241 0.74979 0.02524 0.03100
C 	C 	0.17565 0.76305 0.96425 -0.01200
C 	C 	0.15101 0.71945 0.95561 -0.00400
H 	H 	0.14316 0.69087 0.92373 0.03500
C 	C 	0.11205 0.74357 0.04259 0.01000
C 	C 	0.06577 0.72556 0.00497 -0.05700
C 	C 	0.03876 0.72863 0.02201 -0.03300
C 	C 	0.05767 0.74951 0.07653 -0.03200
C 	C 	0.10334 0.76637 0.11412 -0.02400
C 	C 	0.13048 0.76318 0.09730 -0.04400
H 	H 	0.00336 0.71553 0.99295 0.02900
H 	H 	0.03682 0.75226 0.08965 0.02600
H 	H 	0.05125 0.71098 0.96269 0.04000
H 	H 	0.17019 0.01812 0.01362 0.02600
C 	C 	0.13694 0.49222 0.38275 0.00800
C 	C 	0.09389 0.47144 0.33531 -0.04600
C 	C 	0.06632 0.42449 0.30590 -0.02800
C 	C 	0.08266 0.39825 0.32221 -0.03800
C 	C 	0.12655 0.41887 0.36772 -0.02100
C 	C 	0.15364 0.46575 0.39816 -0.04500
H 	H 	0.03255 0.40847 0.27016 0.01600
H 	H 	0.06158 0.36196 0.29923 0.02400
H 	H 	0.13969 0.39851 0.37907 0.03200
H 	H 	0.18796 0.48154 0.43277 0.03900
H 	H 	0.08197 0.49165 0.32129 0.05100
C 	C 	0.18443 0.58919 0.95145 -0.00000
C 	C 	0.16598 0.54291 0.92249 -0.04800
C 	C 	0.12699 0.51758 0.87008 -0.04000
C 	C 	0.10603 0.53810 0.84637 -0.07200
C 	C 	0.12272 0.58354 0.87584 -0.05000
C 	C 	0.16183 0.60910 0.92827 -0.06000
H 	H 	0.18389 0.52748 0.93907 0.04300
H 	H 	0.11391 0.48234 0.84725 0.02800
H 	H 	0.10631 0.59934 0.85742 0.03100
H 	H 	0.07761 0.51910 0.80476 0.02600
C 	C 	0.04852 0.17972 0.54133 -0.01900
C 	C 	0.05946 0.20207 0.59221 -0.04600
H 	H 	0.07518 0.18511 0.53594 0.02500
H 	H 	0.09459 0.22432 0.62620 0.02800
C 	C 	0.05076 0.14739 0.05887 -0.04700
C 	C 	0.09429 0.16733 0.10500 -0.03600
C 	C 	0.10281 0.18460 0.15535 -0.04800
C 	C 	0.06775 0.18145 0.15976 -0.01600
H 	H 	0.12152 0.16977 0.10183 -0.00300
H 	H 	0.07445 0.19501 0.19880 0.02200
H 	H 	0.13660 0.20050 0.19097 0.02900
C 	C 	0.08208 0.36668 0.07994 -0.02600
C 	C 	0.09478 0.35150 0.04763 -0.05100
C 	C 	0.06179 0.32006 0.99352 -0.00600
H 	H 	0.10765 0.39083 0.12188 0.03100
H 	H 	0.13017 0.36388 0.06461 0.03500
H 	H 	0.07166 0.30816 0.96863 0.02600
C 	C 	0.04852 0.67972 0.54133 -0.01900
C 	C 	0.05946 0.70207 0.59221 -0.04600
H 	H 	0.07518 0.68511 0.53594 0.02500
H 	H 	0.09459 0.72432 0.62620 0.02800
C 	C 	0.05076 0.64739 0.05887 -0.04700
C 	C 	0.09429 0.66733 0.10500 -0.03600
C 	C 	0.10281 0.68460 0.15535 -0.04800
C 	C 	0.06775 0.68145 0.15976 -0.01600
H 	H 	0.12152 0.66977 0.10183 -0.00300
H 	H 	0.07445 0.69501 0.19880 0.02200
H 	H 	0.13660 0.70050 0.19097 0.02900
C 	C 	0.20782 0.40842 0.00318 0.01800
C 	C 	0.21337 0.34703 0.01705 0.03000
C 	C 	0.15857 0.38573 0.48480 0.03000
C 	C 	0.17280 0.32589 0.48818 0.02900
C 	C 	0.04677 0.47999 0.11781 0.37900
O 	O 	0.04106 0.44934 0.07810 -0.46000
H 	H 	0.98160 0.44241 0.62298 0.09700
H 	H 	0.99228 0.46781 0.70817 0.04400
C 	C 	0.02546 0.48585 0.21992 -0.01500
C 	C 	0.04322 0.47045 0.15452 -0.22200
H 	H 	0.03315 0.43670 0.14950 0.08800
H 	H 	0.01889 0.45433 0.22059 0.03200
C 	C 	0.17796 0.26684 0.51464 -0.02600
H 	H 	0.17719 0.21303 0.53257 0.03500
C 	C 	0.18305 0.26877 0.92391 0.02400
C 	C 	0.15602 0.27849 0.88721 -0.05300
H 	H 	0.12895 0.28064 0.88744 0.04100
H 	H 	0.14395 0.29420 0.82298 0.02600
H 	H 	0.17719 0.71303 0.53257 0.03500
C 	C 	0.18305 0.76877 0.92391 0.02400
C 	C 	0.00318 0.15081 0.49737 -0.12800
H 	H 	0.99498 0.13266 0.45835 0.06900
H 	H 	0.04465 0.13525 0.02004 0.01500
C 	C 	0.00318 0.65081 0.49737 -0.12900
H 	H 	0.99498 0.63266 0.45835 0.06900
H 	H 	0.04465 0.63525 0.02004 0.01500
C 	C 	0.03827 0.35142 0.82360 -0.10400
C 	C 	0.02508 0.19576 0.59923 -0.06100
C 	C 	0.02387 0.16018 0.11381 -0.07700
C 	C 	0.02508 0.69576 0.59923 -0.06100
C 	C 	0.02387 0.66018 0.11381 -0.07700
C 	C 	0.98163 0.47179 0.62027 -0.21900
C 	C 	0.16453 0.28629 0.85089 -0.02000
O 	O 	0.99740 0.48375 0.79176 -0.45900
C 	C 	0.00020 0.52095 0.79096 0.26300
C 	C 	0.00020 0.02095 0.79096 0.26800
H 	H 	0.03361 0.21297 0.63868 0.02800
H 	H 	0.03362 0.71297 0.63868 0.02700
O 	O 	0.97077 0.44342 0.53927 -0.44800
C 	C 	0.98939 0.49588 0.70471 -0.02000
C 	C 	0.19985 0.28425 0.85089 -0.04400
C 	C 	0.03634 0.35042 0.05821 -0.03400
C 	C 	0.04670 0.50045 0.19366 0.03800
C 	C 	0.04670 0.00045 0.19366 0.05200
C 	C 	0.97969 0.16752 0.55527 -0.02200
C 	C 	0.97969 0.66752 0.55527 -0.02200
H 	H 	0.19596 0.52120 0.51365 0.04800
C 	C 	0.21138 0.64707 0.05820 0.29500
O 	O 	0.21618 0.68480 0.08464 -0.26900
C 	C 	0.21138 0.14707 0.05820 0.29500
O 	O 	0.21618 0.18480 0.08464 -0.26900
H 	H 	0.27154 0.38921 0.77711 0.02600
C 	C 	0.16780 0.06694 0.45620 -0.10200
C 	C 	0.16662 0.04175 0.41321 0.05000
H 	H 	0.18339 0.11697 0.79982 0.03300
C 	C 	0.24539 0.14814 0.04848 -0.10600
C 	C 	0.23228 0.11809 0.99843 0.05600
H 	H 	0.17615 0.14489 0.94967 0.04500
C 	C 	0.16780 0.56694 0.45620 -0.10000
C 	C 	0.16662 0.54175 0.41321 0.04400
H 	H 	0.19356 0.47266 0.84568 0.03400
H 	H 	0.18339 0.61697 0.79982 0.03300
C 	C 	0.24539 0.64814 0.04848 -0.10600
C 	C 	0.23228 0.61809 0.99843 0.05600
H 	H 	0.17615 0.64489 0.94967 0.04500
C 	C 	0.34096 0.16421 0.01184 -0.00600
C 	C 	0.35256 0.13268 0.99962 -0.03500
C 	C 	0.37067 0.13331 0.97011 0.01100
C 	C 	0.37524 0.16418 0.95100 -0.05900
C 	C 	0.36890 0.19892 0.96858 0.01500
C 	C 	0.35130 0.19878 0.99866 -0.03400
H 	H 	0.34776 0.10794 0.01334 0.03400
H 	H 	0.38914 0.16451 0.92792 0.04400
H 	H 	0.34512 0.22503 0.01112 0.03500
C 	C 	0.26871 0.12963 0.43229 0.02900
C 	C 	0.27122 0.16579 0.42232 -0.06900
C 	C 	0.29762 0.18264 0.40470 0.02800
C 	C 	0.31942 0.16177 0.39442 -0.07300
C 	C 	0.31870 0.12723 0.40686 0.03000
C 	C 	0.29428 0.11201 0.42707 -0.07200
H 	H 	0.25301 0.18085 0.42850 0.05100
H 	H 	0.33951 0.17453 0.38037 0.04800
H 	H 	0.29479 0.08614 0.43823 0.04900
C 	C 	0.27179 0.40178 0.01684 0.03500
C 	C 	0.24812 0.42385 0.00668 -0.08100
C 	C 	0.25516 0.36430 0.02394 -0.07300
H 	H 	0.25957 0.45114 0.99826 0.05800
H 	H 	0.27276 0.34652 0.03039 0.04900
C 	C 	0.22047 0.38637 0.48211 0.02800
C 	C 	0.19534 0.40622 0.48244 -0.07300
C 	C 	0.20875 0.34581 0.48420 -0.07000
H 	H 	0.20272 0.43600 0.47762 0.04900
H 	H 	0.22592 0.32870 0.47990 0.05100
C 	C 	0.22307 0.30135 0.56469 0.02600
C 	C 	0.22687 0.32833 0.60870 -0.05500
C 	C 	0.26944 0.35904 0.65720 -0.02200
C 	C 	0.30826 0.36288 0.66194 -0.04200
C 	C 	0.30468 0.33682 0.61781 -0.02100
C 	C 	0.26217 0.30584 0.56933 -0.05700
H 	H 	0.19685 0.32517 0.60541 0.04100
H 	H 	0.27233 0.37968 0.69119 0.02400
H 	H 	0.25958 0.28529 0.53551 0.04100
H 	H 	0.33485 0.34058 0.62122 0.02500
H 	H 	0.34117 0.38643 0.69963 0.01800
C 	C 	0.25402 0.40411 0.47066 0.00800
C 	C 	0.30059 0.43365 0.51220 -0.02600
C 	C 	0.33127 0.45144 0.50011 0.00400
H 	H 	0.36696 0.47470 0.53234 0.03400
C 	C 	0.31690 0.43707 0.44684 -0.10100
C 	C 	0.26976 0.40830 0.40515 0.04600
C 	C 	0.23889 0.39260 0.41768 -0.07100
H 	H 	0.20291 0.37091 0.38594 0.04700
C 	C 	0.25200 0.39458 0.34852 0.00900
C 	C 	0.23291 0.34973 0.31278 -0.04800
C 	C 	0.21412 0.33630 0.25871 -0.02900
C 	C 	0.21554 0.36775 0.24039 -0.04400
C 	C 	0.23467 0.41245 0.27584 -0.03200
C 	C 	0.25190 0.42570 0.32959 -0.03800
C 	C 	0.31820 0.44386 0.56810 0.02900
C 	C 	0.34714 0.43000 0.59379 -0.05500
C 	C 	0.36878 0.44463 0.64849 -0.01600
C 	C 	0.36068 0.47202 0.67749 -0.04100
C 	C 	0.33131 0.48528 0.65196 -0.01700
C 	C 	0.31037 0.47161 0.59746 -0.05500
H 	H 	0.39155 0.43441 0.66832 0.02900
H 	H 	0.37720 0.48300 0.71977 0.02900
H 	H 	0.32542 0.50679 0.67463 0.02900
H 	H 	0.28888 0.48330 0.57837 0.04700
H 	H 	0.35358 0.40872 0.57159 0.04500
H 	H 	0.23225 0.32529 0.32682 0.04300
H 	H 	0.19790 0.30145 0.23090 0.02900
H 	H 	0.26660 0.46034 0.35689 0.04400
H 	H 	0.23631 0.43681 0.26168 0.03400
H 	H 	0.20169 0.35748 0.19870 0.03100
C 	C 	0.18057 0.47680 0.54583 0.02300
C 	C 	0.19614 0.47117 0.59144 -0.05600
C 	C 	0.23881 0.50439 0.63872 -0.02000
C 	C 	0.26597 0.54340 0.64078 -0.04500
C 	C 	0.25056 0.54923 0.59554 -0.01900
C 	C 	0.20789 0.51616 0.54822 -0.05900
H 	H 	0.17516 0.44117 0.59025 0.04000
H 	H 	0.25085 0.49990 0.67376 0.02700
H 	H 	0.27158 0.57946 0.59720 0.03100
H 	H 	0.29902 0.56904 0.67740 0.03300
C 	C 	0.22695 0.27480 0.88752 -0.01800
C 	C 	0.21843 0.26673 0.92376 -0.05500
H 	H 	0.23989 0.25994 0.95246 0.04200
H 	H 	0.25483 0.27421 0.88818 0.03200
H 	H 	0.20668 0.29073 0.82309 0.03700
C 	C 	0.30812 0.41195 0.00879 -0.00900
C 	C 	0.35404 0.43554 0.05236 -0.01800
C 	C 	0.38774 0.44479 0.04327 -0.01400
H 	H 	0.42308 0.46414 0.07700 0.03900
C 	C 	0.37594 0.42954 0.99086 -0.08300
C 	C 	0.32929 0.40387 0.94717 0.03600
C 	C 	0.29632 0.39725 0.95681 -0.05400
H 	H 	0.26101 0.37942 0.92345 0.04800
C 	C 	0.31414 0.38110 0.89142 0.01500
C 	C 	0.31399 0.34164 0.87244 -0.05400
C 	C 	0.29889 0.31968 0.81937 -0.03200
C 	C 	0.28376 0.33693 0.78509 -0.05200
C 	C 	0.28342 0.37600 0.80373 -0.03000
C 	C 	0.29834 0.39797 0.85672 -0.05000
C 	C 	0.36703 0.45078 0.10748 0.02600
C 	C 	0.37766 0.42649 0.13394 -0.05800
C 	C 	0.38573 0.43839 0.18416 -0.01500
C 	C 	0.38363 0.47473 0.20826 -0.04700
C 	C 	0.37380 0.49943 0.18240 -0.01600
C 	C 	0.36560 0.48762 0.13215 -0.05500
H 	H 	0.39352 0.41940 0.20435 -0.01100
H 	H 	0.38958 0.48376 0.24695 0.00900
H 	H 	0.37233 0.52756 0.20118 0.02600
H 	H 	0.35722 0.50644 0.11193 0.04500
H 	H 	0.37874 0.39793 0.11513 0.04100
H 	H 	0.32556 0.32810 0.89880 0.04600
H 	H 	0.29884 0.28928 0.80479 0.02700
H 	H 	0.29792 0.42817 0.87089 0.04400
H 	H 	0.27221 0.31998 0.74407 0.02900
C 	C 	0.23880 0.50493 0.05518 0.03600
C 	C 	0.25494 0.50776 0.10568 -0.06200
C 	C 	0.29879 0.54236 0.14975 -0.01600
C 	C 	0.32683 0.57389 0.14347 -0.04700
C 	C 	0.31095 0.57103 0.09314 -0.01400
C 	C 	0.26699 0.53673 0.04905 -0.06300
H 	H 	0.23343 0.48339 0.11078 0.04100
H 	H 	0.31108 0.54472 0.18876 0.02500
H 	H 	0.25483 0.53483 0.01022 0.04100
H 	H 	0.33262 0.59552 0.08834 0.02900
H 	H 	0.36087 0.60047 0.17759 0.03600
C 	C 	0.34819 0.11101 0.40548 0.00900
C 	C 	0.32957 0.06693 0.36755 -0.02900
C 	C 	0.35574 0.04735 0.37649 0.00700
H 	H 	0.34071 0.01257 0.34899 0.02500
C 	C 	0.40029 0.07168 0.42280 -0.11000
C 	C 	0.39430 0.13714 0.44740 -0.07300
C 	C 	0.28362 0.04211 0.31739 0.02600
C 	C 	0.27806 0.04261 0.27088 -0.05900
C 	C 	0.23456 0.02094 0.22399 -0.01600
C 	C 	0.19653 0.99876 0.22338 -0.04800
C 	C 	0.20191 0.99815 0.26962 -0.02200
C 	C 	0.24533 0.01956 0.31650 -0.05200
H 	H 	0.23033 0.02166 0.18828 0.02600
H 	H 	0.24917 0.01843 0.35192 0.04200
H 	H 	0.30738 0.06016 0.27125 0.03900
C 	C 	0.33736 0.30551 0.39774 -0.10000
C 	C 	0.30578 0.26388 0.34997 0.04400
C 	C 	0.28937 0.22393 0.35274 -0.07100
H 	H 	0.26564 0.19186 0.31631 0.04600
C 	C 	0.30662 0.22494 0.40251 0.00700
C 	C 	0.33750 0.26678 0.44996 -0.02600
C 	C 	0.34925 0.30653 0.44658 0.00600
C 	C 	0.36325 0.26975 0.50287 0.03000
C 	C 	0.36213 0.29320 0.54425 -0.05600
C 	C 	0.29190 0.26152 0.29740 0.00900
C 	C 	0.24746 0.24913 0.26017 -0.04800
C 	C 	0.23524 0.24937 0.21178 -0.02600
C 	C 	0.26747 0.26284 0.20094 -0.04100
C 	C 	0.31126 0.27359 0.23701 -0.03000
C 	C 	0.32340 0.27260 0.28495 -0.04800
H 	H 	0.20103 0.23986 0.18306 0.02900
H 	H 	0.25860 0.26528 0.16480 0.04600
H 	H 	0.33602 0.28339 0.22822 0.02100
H 	H 	0.35779 0.28269 0.31361 0.04200
H 	H 	0.22273 0.24009 0.26909 0.03600
H 	H 	0.33742 0.30295 0.53564 0.04100
C 	C 	0.19919 0.06306 0.40507 -0.07200
H 	H 	0.19671 0.04476 0.37012 0.05000
C 	C 	0.23601 0.10723 0.44298 0.00900
C 	C 	0.24160 0.12908 0.49103 -0.02700
C 	C 	0.20670 0.10939 0.49651 0.00400
H 	H 	0.20980 0.12728 0.53212 0.03600
C 	C 	0.28528 0.16977 0.53777 0.02900
C 	C 	0.32401 0.16726 0.56232 -0.05500
C 	C 	0.36242 0.20180 0.61303 -0.01700
C 	C 	0.36211 0.23855 0.63981 -0.04300
C 	C 	0.32413 0.24177 0.61508 -0.01900
C 	C 	0.28619 0.20807 0.56366 -0.05700
H 	H 	0.32365 0.13773 0.54311 0.04400
H 	H 	0.39217 0.19976 0.63193 0.02800
H 	H 	0.25666 0.21056 0.54505 0.04200
H 	H 	0.32404 0.27029 0.63588 0.02500
H 	H 	0.39179 0.26520 0.67907 0.02900
C 	C 	0.39554 0.11082 0.97159 0.02600
C 	C 	0.37278 0.06368 0.94202 -0.03400
C 	C 	0.39805 0.04351 0.94544 0.00900
H 	H 	0.38077 0.00727 0.92257 0.03400
C 	C 	0.44534 0.06941 0.98232 -0.10800
C 	C 	0.44281 0.13684 0.00589 -0.08800
C 	C 	0.32309 0.03519 0.91256 0.03000
C 	C 	0.30475 0.01116 0.93348 -0.05500
C 	C 	0.24758 0.01285 0.84242 -0.01200
C 	C 	0.29420 0.03536 0.86641 -0.05900
H 	H 	0.22546 0.01369 0.80741 0.02700
H 	H 	0.30801 0.05391 0.85005 0.04200
H 	H 	0.32674 0.01087 0.96915 0.04800
C 	C 	0.42669 0.30828 0.94388 -0.10600
C 	C 	0.45454 0.29930 0.98168 0.05700
C 	C 	0.43483 0.26688 0.99348 -0.06700
C 	C 	0.38776 0.23872 0.96302 0.01400
C 	C 	0.35981 0.24408 0.92133 -0.03000
C 	C 	0.37935 0.27889 0.91206 0.00600
H 	H 	0.35774 0.28310 0.88017 0.03400
C 	C 	0.31030 0.21178 0.88551 0.02800
C 	C 	0.28342 0.21323 0.90357 -0.05700
C 	C 	0.23784 0.17883 0.87288 -0.01700
C 	C 	0.21865 0.14358 0.82350 -0.04300
C 	C 	0.24503 0.14257 0.80476 -0.02000
C 	C 	0.29080 0.17652 0.83570 -0.05800
H 	H 	0.29809 0.24043 0.94183 0.04300
H 	H 	0.21748 0.17935 0.88753 0.03200
H 	H 	0.31135 0.17486 0.82162 0.04000
H 	H 	0.23015 0.11518 0.76658 0.02500
C 	C 	0.31032 0.15574 0.02820 0.01200
C 	C 	0.32389 0.18579 0.07821 -0.03200
C 	C 	0.29144 0.18100 0.08861 0.00500
H 	H 	0.30180 0.20378 0.12722 0.03300
C 	C 	0.26540 0.12038 0.99050 -0.06700
H 	H 	0.25540 0.09731 0.95222 0.05300
C 	C 	0.37137 0.22378 0.11837 0.02800
C 	C 	0.40640 0.21549 0.13965 -0.05800
C 	C 	0.45158 0.25100 0.17148 -0.01900
C 	C 	0.46199 0.29489 0.18284 -0.04600
C 	C 	0.42729 0.30354 0.16344 -0.02100
C 	C 	0.38204 0.26811 0.13122 -0.06200
H 	H 	0.47852 0.24444 0.18696 0.02900
H 	H 	0.43546 0.33762 0.17270 0.02000
H 	H 	0.35531 0.27489 0.11493 0.03900
H 	H 	0.39856 0.18146 0.13031 0.04200
C 	C 	0.34096 0.66421 0.01184 -0.00500
C 	C 	0.35256 0.63268 0.99962 -0.03600
C 	C 	0.37067 0.63331 0.97011 0.01100
C 	C 	0.37524 0.66418 0.95100 -0.05900
C 	C 	0.36890 0.69892 0.96858 0.01500
C 	C 	0.35130 0.69878 0.99866 -0.03400
H 	H 	0.34776 0.60794 0.01334 0.03400
H 	H 	0.38914 0.66451 0.92792 0.04400
H 	H 	0.34512 0.72503 0.01112 0.03600
C 	C 	0.26871 0.62963 0.43229 0.02900
C 	C 	0.27122 0.66579 0.42232 -0.06900
C 	C 	0.29762 0.68264 0.40470 0.02800
C 	C 	0.31942 0.66177 0.39442 -0.07300
C 	C 	0.31870 0.62723 0.40686 0.03000
C 	C 	0.29428 0.61201 0.42707 -0.07200
H 	H 	0.25301 0.68085 0.42850 0.05100
H 	H 	0.33951 0.67453 0.38037 0.04800
H 	H 	0.29479 0.58614 0.43823 0.04800
C 	C 	0.23881 0.00439 0.63872 -0.00800
C 	C 	0.26597 0.04340 0.64078 -0.04900
C 	C 	0.25055 0.04923 0.59554 -0.01700
C 	C 	0.20789 0.01616 0.54822 -0.05500
H 	H 	0.25085 0.99990 0.67376 0.02100
H 	H 	0.27159 0.07946 0.59720 0.03100
H 	H 	0.29902 0.06904 0.67740 0.03500
C 	C 	0.21843 0.76673 0.92376 -0.05500
H 	H 	0.23989 0.75994 0.95246 0.04200
C 	C 	0.37380 0.99943 0.18240 -0.02000
H 	H 	0.37233 0.02755 0.20118 0.02900
H 	H 	0.35722 0.00644 0.11193 0.04800
C 	C 	0.29879 0.04236 0.14975 -0.01700
C 	C 	0.32683 0.07389 0.14347 -0.04600
C 	C 	0.31095 0.07104 0.09314 -0.01400
C 	C 	0.26699 0.03673 0.04905 -0.06300
H 	H 	0.31108 0.04472 0.18876 0.02600
H 	H 	0.25483 0.03483 0.01022 0.04200
H 	H 	0.33262 0.09552 0.08834 0.02900
H 	H 	0.36087 0.10047 0.17759 0.03500
C 	C 	0.34819 0.61101 0.40548 0.00900
C 	C 	0.32957 0.56693 0.36755 -0.03000
C 	C 	0.35574 0.54735 0.37649 0.00700
H 	H 	0.34071 0.51257 0.34899 0.02400
C 	C 	0.40029 0.57168 0.42280 -0.11100
C 	C 	0.39430 0.63714 0.44740 -0.07400
C 	C 	0.28362 0.54211 0.31739 0.02700
C 	C 	0.27806 0.54261 0.27088 -0.05900
C 	C 	0.23456 0.52094 0.22399 -0.02100
C 	C 	0.19653 0.49876 0.22338 -0.04400
C 	C 	0.20191 0.49815 0.26962 -0.01900
C 	C 	0.24533 0.51956 0.31650 -0.05700
H 	H 	0.23033 0.52166 0.18828 0.02600
H 	H 	0.16290 0.48212 0.18710 0.03500
H 	H 	0.17245 0.48090 0.26908 0.03100
H 	H 	0.24917 0.51843 0.35192 0.04200
H 	H 	0.30738 0.56016 0.27125 0.03900
C 	C 	0.28937 0.72393 0.35274 -0.07100
H 	H 	0.26564 0.69186 0.31631 0.04600
C 	C 	0.30662 0.72494 0.40251 0.00700
H 	H 	0.20103 0.73986 0.18306 0.02900
C 	C 	0.19919 0.56306 0.40507 -0.07000
H 	H 	0.19671 0.54476 0.37012 0.04900
C 	C 	0.23601 0.60723 0.44298 0.00800
C 	C 	0.24160 0.62908 0.49103 -0.02700
C 	C 	0.20670 0.60939 0.49651 0.00300
H 	H 	0.20980 0.62728 0.53212 0.03600
C 	C 	0.28528 0.66977 0.53777 0.02800
C 	C 	0.32401 0.66726 0.56232 -0.05500
C 	C 	0.36242 0.70180 0.61303 -0.01700
C 	C 	0.36211 0.73855 0.63981 -0.04300
C 	C 	0.32413 0.74177 0.61508 -0.01900
C 	C 	0.28619 0.70807 0.56366 -0.05700
H 	H 	0.32365 0.63773 0.54311 0.04300
H 	H 	0.39217 0.69976 0.63193 0.02800
H 	H 	0.25666 0.71057 0.54505 0.04200
C 	C 	0.39554 0.61082 0.97159 0.02600
C 	C 	0.37278 0.56368 0.94202 -0.03500
C 	C 	0.39805 0.54351 0.94544 0.00900
H 	H 	0.38077 0.50727 0.92257 0.03300
C 	C 	0.44534 0.56941 0.98232 -0.10900
C 	C 	0.44281 0.63684 0.00589 -0.08800
C 	C 	0.32309 0.53519 0.91256 0.03000
C 	C 	0.30475 0.51116 0.93348 -0.06000
C 	C 	0.25809 0.48855 0.90921 -0.01800
C 	C 	0.22959 0.48968 0.86398 -0.04500
C 	C 	0.24759 0.51285 0.84242 -0.01800
C 	C 	0.29420 0.53536 0.86641 -0.05800
H 	H 	0.24407 0.47051 0.92572 0.03000
H 	H 	0.22546 0.51369 0.80741 0.02700
H 	H 	0.30801 0.55391 0.85005 0.04200
H 	H 	0.32674 0.51087 0.96915 0.04800
C 	C 	0.38776 0.73872 0.96302 0.01400
C 	C 	0.35981 0.74408 0.92133 -0.03000
C 	C 	0.31030 0.71178 0.88551 0.02800
C 	C 	0.28342 0.71323 0.90357 -0.05700
C 	C 	0.23784 0.67883 0.87288 -0.01700
C 	C 	0.21865 0.64358 0.82350 -0.04300
C 	C 	0.24503 0.64257 0.80476 -0.02000
C 	C 	0.29080 0.67652 0.83570 -0.05800
H 	H 	0.29809 0.74043 0.94183 0.04300
H 	H 	0.21748 0.67935 0.88753 0.03200
H 	H 	0.31135 0.67486 0.82162 0.04000
H 	H 	0.23015 0.61518 0.76658 0.02400
C 	C 	0.31032 0.65574 0.02820 0.01200
C 	C 	0.32389 0.68579 0.07821 -0.03200
C 	C 	0.29144 0.68100 0.08861 0.00500
H 	H 	0.30180 0.70378 0.12722 0.03300
C 	C 	0.26540 0.62038 0.99050 -0.06800
H 	H 	0.25540 0.59731 0.95222 0.05300
C 	C 	0.37137 0.72378 0.11837 0.02800
C 	C 	0.40640 0.71549 0.13965 -0.05800
C 	C 	0.45158 0.75100 0.17148 -0.01900
C 	C 	0.38204 0.76811 0.13122 -0.06200
H 	H 	0.47852 0.74444 0.18696 0.02900
H 	H 	0.35531 0.77489 0.11493 0.03900
H 	H 	0.39856 0.68146 0.13031 0.04200
Zn	Zn	0.43564 0.42091 0.91166 1.17700
C 	C 	0.44594 0.35123 0.94303 0.32300
C 	C 	0.41234 0.44222 0.98217 0.31900
O 	O 	0.41839 0.36178 0.91358 -0.46300
O 	O 	0.40204 0.43646 0.93492 -0.47700
O 	O 	0.45340 0.45324 0.01936 -0.45500
Zn	Zn	0.37342 0.41897 0.36706 1.17800
C 	C 	0.36465 0.34647 0.39888 0.32300
C 	C 	0.35198 0.44724 0.43613 0.32100
O 	O 	0.34468 0.35907 0.36468 -0.45200
O 	O 	0.34133 0.44023 0.38848 -0.47500
O 	O 	0.39098 0.45331 0.47080 -0.48100
H 	H 	0.40770 0.09703 0.28088 0.03100
H 	H 	0.42938 0.27210 0.76803 0.02900
H 	H 	0.40770 0.59703 0.28088 0.03000
H 	H 	0.99211 0.33379 0.29925 0.05300
C 	C 	0.39488 0.30680 0.59720 -0.01600
H 	H 	0.39522 0.32664 0.62923 0.02300
H 	H 	0.37245 0.33864 0.48300 0.03700
C 	C 	0.42051 0.11773 0.45683 0.04900
H 	H 	0.40912 0.17190 0.47477 0.04700
C 	C 	0.46851 0.14533 0.50393 -0.00100
C 	C 	0.50318 0.15081 0.49737 -0.04500
C 	C 	0.54852 0.17972 0.54133 -0.04300
C 	C 	0.55946 0.20207 0.59221 -0.03900
C 	C 	0.52509 0.19576 0.59923 -0.03200
C 	C 	0.47970 0.16752 0.55527 -0.04300
H 	H 	0.49498 0.13266 0.45835 0.02700
H 	H 	0.57518 0.18511 0.53594 0.03500
H 	H 	0.45325 0.16305 0.56099 0.03900
H 	H 	0.53361 0.21297 0.63868 0.02900
C 	C 	0.39602 0.25799 0.51496 -0.05300
C 	C 	0.42697 0.26938 0.56762 -0.01700
C 	C 	0.42700 0.29454 0.60882 -0.04200
H 	H 	0.39897 0.24213 0.48408 0.04300
H 	H 	0.45191 0.25996 0.57668 0.02900
H 	H 	0.45179 0.30441 0.64976 0.03100
C 	C 	0.46770 0.11632 0.01449 0.04200
H 	H 	0.45994 0.17297 0.02961 0.04800
C 	C 	0.51501 0.14249 0.06303 0.00600
C 	C 	0.55076 0.14739 0.05887 -0.05100
C 	C 	0.59429 0.16733 0.10500 -0.03500
C 	C 	0.60281 0.18460 0.15535 -0.04400
C 	C 	0.56775 0.18145 0.15976 -0.02600
C 	C 	0.52387 0.16018 0.11381 -0.04200
H 	H 	0.54465 0.13525 0.02004 0.02200
H 	H 	0.62152 0.16977 0.10183 -0.00300
H 	H 	0.49663 0.15674 0.11758 0.04000
H 	H 	0.57445 0.19501 0.19880 0.03000
H 	H 	0.63660 0.20050 0.19097 0.02900
H 	H 	0.45621 0.26099 0.02364 0.04100
C 	C 	0.50309 0.31902 0.00382 -0.00800
C 	C 	0.53634 0.35042 0.05821 -0.03700
C 	C 	0.58208 0.36668 0.07994 -0.02500
C 	C 	0.59478 0.35150 0.04763 -0.04700
C 	C 	0.56179 0.32006 0.99352 -0.01700
C 	C 	0.51597 0.30353 0.97166 -0.03000
H 	H 	0.60765 0.39083 0.12188 0.03100
H 	H 	0.63017 0.36388 0.06461 0.03400
H 	H 	0.57166 0.30816 0.96863 0.03300
H 	H 	0.49052 0.27843 0.92999 0.03800
H 	H 	0.52670 0.36203 0.08358 0.04200
H 	H 	0.49691 0.32215 0.20640 0.03300
C 	C 	0.42051 0.61773 0.45683 0.04900
H 	H 	0.40912 0.67190 0.47477 0.04700
C 	C 	0.46851 0.64533 0.50393 -0.00100
C 	C 	0.50318 0.65081 0.49737 -0.04500
C 	C 	0.54852 0.67972 0.54133 -0.04300
C 	C 	0.55946 0.70207 0.59221 -0.03900
C 	C 	0.52509 0.69576 0.59923 -0.03200
C 	C 	0.47970 0.66752 0.55527 -0.04300
H 	H 	0.49498 0.63266 0.45835 0.02700
H 	H 	0.57518 0.68511 0.53594 0.03500
H 	H 	0.45325 0.66305 0.56099 0.03900
H 	H 	0.53361 0.71297 0.63868 0.02900
H 	H 	0.39897 0.74213 0.48408 0.04300
C 	C 	0.46770 0.61632 0.01449 0.04200
H 	H 	0.45994 0.67297 0.02961 0.04800
C 	C 	0.51501 0.64249 0.06303 0.00600
C 	C 	0.55076 0.64739 0.05887 -0.05100
C 	C 	0.59429 0.66733 0.10500 -0.03500
C 	C 	0.60281 0.68460 0.15535 -0.04400
C 	C 	0.56775 0.68145 0.15976 -0.02600
C 	C 	0.52387 0.66018 0.11381 -0.04200
H 	H 	0.54465 0.63525 0.02004 0.02200
H 	H 	0.62152 0.66977 0.10183 -0.00300
H 	H 	0.49663 0.65674 0.11758 0.04000
H 	H 	0.57445 0.69501 0.19880 0.03000
H 	H 	0.63660 0.70050 0.19097 0.02900
Zn	Zn	0.62001 0.60511 0.02704 1.18400
Zn	Zn	0.53985 0.56781 0.90996 1.18400
O 	O 	0.49740 0.48375 0.79176 -0.50100
O 	O 	0.50839 0.55355 0.83112 -0.45500
O 	O 	0.55113 0.44854 0.87768 -0.50100
O 	O 	0.50084 0.50541 0.88968 -0.90000
C 	C 	0.61368 0.66717 0.98136 0.32100
O 	O 	0.55902 0.57069 0.98286 -0.78000
O 	O 	0.58696 0.50053 0.96357 -0.46100
O 	O 	0.58419 0.63158 0.93307 -0.46600
O 	O 	0.62922 0.66275 0.02476 -0.44700
Zn	Zn	0.52079 0.44348 0.00263 1.18600
Zn	Zn	0.52565 0.50704 0.95763 1.21500
O 	O 	0.46634 0.51777 0.95522 -0.45900
Zn	Zn	0.51992 0.52060 0.05507 1.20400
O 	O 	0.49011 0.37870 0.97239 -0.46400
C 	C 	0.54677 0.47999 0.11781 0.37900
O 	O 	0.49273 0.44348 0.93106 -0.80700
C 	C 	0.47000 0.54676 0.99401 0.34000
O 	O 	0.54106 0.44934 0.07810 -0.45200
O 	O 	0.55235 0.51832 0.11933 -0.49500
O 	O 	0.49167 0.55193 0.04217 -0.50600
O 	O 	0.54873 0.50741 0.02547 -0.90100
Zn	Zn	0.51519 0.47294 0.85283 1.18300
C 	C 	0.50020 0.52095 0.79096 0.33100
C 	C 	0.58233 0.46679 0.92893 0.31800
H 	H 	0.58216 0.52462 0.05061 0.16000
H 	H 	0.46816 0.49451 0.86925 0.16500
Zn	Zn	0.58124 0.57777 0.49399 1.18500
Zn	Zn	0.51242 0.54914 0.37844 1.19600
O 	O 	0.49601 0.46716 0.28365 -0.48300
O 	O 	0.49447 0.53176 0.30290 -0.45100
O 	O 	0.49394 0.41307 0.35694 -0.49100
O 	O 	0.46399 0.48929 0.35346 -0.87500
C 	C 	0.59123 0.64386 0.45473 0.31300
O 	O 	0.52093 0.55413 0.44834 -0.77900
O 	O 	0.53103 0.47170 0.43884 -0.46100
O 	O 	0.56557 0.60896 0.40643 -0.45100
Zn	Zn	0.45037 0.43276 0.46304 1.19200
Zn	Zn	0.47612 0.49306 0.42039 1.21800
O 	O 	0.42355 0.51903 0.40649 -0.45700
Zn	Zn	0.45989 0.51714 0.50985 1.20100
O 	O 	0.40911 0.36860 0.43274 -0.46200
C 	C 	0.47702 0.47602 0.57761 0.38000
O 	O 	0.43073 0.43212 0.39165 -0.80100
C 	C 	0.42240 0.54755 0.44036 0.32200
O 	O 	0.47077 0.44342 0.53927 -0.45400
O 	O 	0.48082 0.51311 0.57549 -0.48600
O 	O 	0.43602 0.55088 0.48765 -0.49200
O 	O 	0.48851 0.49564 0.48674 -0.89900
Zn	Zn	0.47456 0.44594 0.32406 1.18600
C 	C 	0.50085 0.50301 0.27763 0.34000
C 	C 	0.52443 0.43396 0.40874 0.31600
H 	H 	0.52072 0.50852 0.51506 0.16000
H 	H 	0.43325 0.48285 0.32901 0.15800
C 	C 	0.49156 0.52514 0.74286 -0.15900
C 	C 	0.48939 0.49588 0.70471 -0.00200
C 	C 	0.48431 0.50184 0.65849 0.03700
C 	C 	0.48163 0.47179 0.62027 -0.21800
H 	H 	0.48255 0.53054 0.65562 0.02900
H 	H 	0.48886 0.55331 0.73958 0.07600
H 	H 	0.48160 0.44241 0.62298 0.09300
H 	H 	0.49228 0.46781 0.70817 0.03400
C 	C 	0.51461 0.51183 0.24307 -0.15700
C 	C 	0.52546 0.48585 0.21992 0.00100
C 	C 	0.54670 0.50045 0.19366 0.03600
C 	C 	0.54322 0.47045 0.15452 -0.21700
H 	H 	0.56158 0.53560 0.20293 0.03100
H 	H 	0.51889 0.54189 0.23927 0.07700
H 	H 	0.53315 0.43670 0.14950 0.09200
H 	H 	0.51889 0.45433 0.22059 0.03600
C 	C 	0.58759 0.20245 0.42657 0.04400
H 	H 	0.58995 0.25510 0.40579 0.04800
C 	C 	0.53805 0.17247 0.38671 -0.00200
C 	C 	0.51987 0.14227 0.33452 -0.04400
C 	C 	0.47290 0.11494 0.29653 -0.03200
C 	C 	0.44402 0.11805 0.31032 -0.04400
C 	C 	0.46204 0.14869 0.36199 -0.03000
C 	C 	0.50897 0.17627 0.39998 -0.05200
H 	H 	0.45893 0.09151 0.25638 0.03800
H 	H 	0.43967 0.15118 0.37257 0.03300
H 	H 	0.52276 0.20059 0.43965 0.04100
H 	H 	0.54206 0.13979 0.32357 0.04800
C 	C 	0.55735 0.42039 0.43179 -0.11100
C 	C 	0.54544 0.37531 0.40773 0.04800
C 	C 	0.57918 0.36508 0.42430 -0.07300
H 	H 	0.57029 0.33090 0.40367 0.04800
C 	C 	0.49761 0.33785 0.37117 0.00300
C 	C 	0.47631 0.31713 0.39192 -0.04600
C 	C 	0.43458 0.27631 0.35765 -0.02500
C 	C 	0.41348 0.25654 0.30252 -0.03700
C 	C 	0.43367 0.27796 0.28151 -0.03100
C 	C 	0.47597 0.31818 0.31571 -0.03900
H 	H 	0.41852 0.26006 0.37381 0.03300
H 	H 	0.38105 0.22505 0.27600 0.03500
H 	H 	0.41670 0.26318 0.23880 0.03500
H 	H 	0.49211 0.33379 0.29925 0.03900
H 	H 	0.49285 0.33186 0.43467 0.03600
C 	C 	0.63503 0.21256 0.98666 -0.08200
H 	H 	0.64316 0.19087 0.92373 0.03700
C 	C 	0.61205 0.24357 0.04259 0.01100
C 	C 	0.56577 0.22556 0.00497 -0.05700
C 	C 	0.53877 0.22863 0.02201 -0.03100
C 	C 	0.55767 0.24951 0.07653 -0.03100
H 	H 	0.50336 0.21553 0.99295 0.03900
H 	H 	0.53682 0.25226 0.08965 0.03300
H 	H 	0.55125 0.21098 0.96269 0.04500
H 	H 	0.62895 0.28064 0.88744 0.04300
C 	C 	0.61485 0.45207 0.94728 -0.12400
C 	C 	0.60166 0.40701 0.91931 0.05400
C 	C 	0.63375 0.39468 0.93524 -0.08500
H 	H 	0.62352 0.36020 0.91328 0.05100
C 	C 	0.55360 0.37147 0.87718 0.00100
C 	C 	0.52376 0.35575 0.89101 -0.04500
C 	C 	0.47897 0.32015 0.85158 -0.03400
C 	C 	0.46386 0.30010 0.79831 -0.04300
C 	C 	0.49340 0.31587 0.78426 -0.03200
C 	C 	0.53827 0.35142 0.82360 -0.04200
H 	H 	0.45611 0.30774 0.86236 0.03300
H 	H 	0.48164 0.30030 0.74298 0.02700
H 	H 	0.56114 0.36322 0.81258 0.03700
H 	H 	0.53549 0.37079 0.93231 0.03400
C 	C 	0.60603 0.03810 0.84637 -0.07300
Zn	Zn	0.62001 0.10511 0.02704 1.18400
Zn	Zn	0.53985 0.06781 0.90996 1.18400
O 	O 	0.50839 0.05355 0.83112 -0.45500
C 	C 	0.61368 0.16717 0.98136 0.32100
O 	O 	0.55902 0.07069 0.98286 -0.78000
O 	O 	0.58419 0.13158 0.93307 -0.46600
O 	O 	0.62922 0.16275 0.02476 -0.44700
Zn	Zn	0.52565 0.00704 0.95763 1.21600
O 	O 	0.46634 0.01777 0.95522 -0.45700
Zn	Zn	0.51992 0.02060 0.05507 1.20500
C 	C 	0.47000 0.04676 0.99401 0.34000
O 	O 	0.55235 0.01832 0.11933 -0.49200
O 	O 	0.49167 0.05193 0.04217 -0.50500
O 	O 	0.54873 0.00741 0.02547 -0.89900
C 	C 	0.50020 0.02095 0.79096 0.33300
H 	H 	0.58216 0.02462 0.05061 0.16100
Zn	Zn	0.58124 0.07777 0.49399 1.18500
Zn	Zn	0.51242 0.04914 0.37844 1.19700
O 	O 	0.49447 0.03176 0.30290 -0.45000
C 	C 	0.59123 0.14386 0.45473 0.31300
O 	O 	0.52093 0.05413 0.44834 -0.77700
O 	O 	0.56557 0.10896 0.40643 -0.45100
O 	O 	0.42355 0.01903 0.40649 -0.45400
Zn	Zn	0.45989 0.01714 0.50985 1.20200
C 	C 	0.42240 0.04755 0.44036 0.32200
O 	O 	0.48082 0.01311 0.57549 -0.48300
O 	O 	0.43602 0.05088 0.48765 -0.49100
O 	O 	0.48851 0.99564 0.48674 -0.90400
C 	C 	0.50085 0.00301 0.27763 0.34200
H 	H 	0.52072 0.00852 0.51506 0.16400
C 	C 	0.49156 0.02514 0.74286 -0.15000
C 	C 	0.48431 0.00184 0.65849 0.05000
H 	H 	0.48255 0.03054 0.65562 0.02700
H 	H 	0.48886 0.05331 0.73958 0.07500
C 	C 	0.51461 0.01183 0.24307 -0.14900
C 	C 	0.54670 0.00045 0.19366 0.04800
H 	H 	0.56158 0.03560 0.20293 0.02800
H 	H 	0.51889 0.04189 0.23927 0.07600
C 	C 	0.58759 0.70245 0.42657 0.04400
C 	C 	0.53805 0.67247 0.38671 -0.00200
C 	C 	0.51987 0.64227 0.33452 -0.04400
C 	C 	0.47290 0.61494 0.29653 -0.03200
C 	C 	0.44402 0.61805 0.31032 -0.04400
C 	C 	0.46205 0.64869 0.36199 -0.03000
C 	C 	0.50897 0.67627 0.39998 -0.05200
H 	H 	0.45893 0.59151 0.25638 0.03700
H 	H 	0.43967 0.65118 0.37257 0.03300
H 	H 	0.52276 0.70059 0.43965 0.04100
H 	H 	0.54206 0.63979 0.32357 0.04800
C 	C 	0.63503 0.71256 0.98666 -0.08200
H 	H 	0.64316 0.69087 0.92373 0.03700
C 	C 	0.61205 0.74357 0.04259 0.01100
C 	C 	0.56577 0.72556 0.00497 -0.05600
C 	C 	0.53877 0.72863 0.02201 -0.03100
C 	C 	0.55767 0.74951 0.07653 -0.03100
H 	H 	0.50336 0.71553 0.99295 0.03900
H 	H 	0.53682 0.75226 0.08965 0.03300
H 	H 	0.55125 0.71098 0.96269 0.04500
C 	C 	0.56632 0.42449 0.30590 -0.02500
C 	C 	0.58266 0.39825 0.32221 -0.03600
C 	C 	0.62655 0.41887 0.36772 -0.02100
H 	H 	0.53255 0.40847 0.27016 0.02600
H 	H 	0.56158 0.36196 0.29923 0.03300
H 	H 	0.63968 0.39851 0.37907 0.03300
C 	C 	0.62699 0.51758 0.87008 -0.03900
C 	C 	0.60603 0.53810 0.84637 -0.07100
H 	H 	0.61391 0.48234 0.84725 0.03100
H 	H 	0.57762 0.51910 0.80476 0.03400
H 	H 	0.02670 0.36203 0.08358 0.03400
C 	C 	0.60896 0.24596 0.43356 -0.07100
C 	C 	0.60334 0.26637 0.11412 -0.02400
C 	C 	0.60896 0.74596 0.43356 -0.07100
C 	C 	0.60334 0.76637 0.11412 -0.02400
H 	H 	0.59459 0.22432 0.62620 0.02900
H 	H 	0.59459 0.72432 0.62620 0.02900
C 	C 	0.77179 0.40178 0.01684 0.03400
C 	C 	0.74812 0.42385 0.00668 -0.07900
C 	C 	0.70782 0.40842 0.00318 0.01600
C 	C 	0.69158 0.37099 0.01046 -0.07200
C 	C 	0.71337 0.34703 0.01705 0.02900
C 	C 	0.75516 0.36430 0.02394 -0.07300
H 	H 	0.75957 0.45114 0.99826 0.05700
H 	H 	0.65965 0.35807 0.00593 0.04300
H 	H 	0.77276 0.34652 0.03039 0.04900
C 	C 	0.72047 0.38637 0.48211 0.02800
C 	C 	0.69534 0.40622 0.48244 -0.07100
C 	C 	0.65858 0.38573 0.48480 0.02700
C 	C 	0.64995 0.34771 0.49217 -0.07300
C 	C 	0.67280 0.32589 0.48818 0.02800
C 	C 	0.70876 0.34581 0.48420 -0.06800
H 	H 	0.70272 0.43600 0.47762 0.04900
H 	H 	0.62225 0.33243 0.49535 0.04700
H 	H 	0.72592 0.32870 0.47990 0.05100
C 	C 	0.71138 0.64707 0.05820 0.29500
O 	O 	0.67502 0.60853 0.03786 -0.46900
O 	O 	0.71618 0.68480 0.08464 -0.26900
C 	C 	0.62683 0.55247 0.45561 0.31000
O 	O 	0.63082 0.57131 0.49987 -0.46800
O 	O 	0.58681 0.53001 0.40983 -0.36200
O 	O 	0.60344 0.63821 0.49733 -0.45800
C 	C 	0.61256 0.18997 0.46182 -0.09900
C 	C 	0.65353 0.27870 0.47819 0.00800
C 	C 	0.67796 0.26684 0.51464 -0.02800
C 	C 	0.65788 0.22225 0.50521 0.00500
H 	H 	0.67719 0.21303 0.53257 0.03400
C 	C 	0.72307 0.30135 0.56469 0.02700
C 	C 	0.72687 0.32833 0.60870 -0.05500
C 	C 	0.76944 0.35904 0.65720 -0.02100
C 	C 	0.76217 0.30584 0.56933 -0.05700
H 	H 	0.69685 0.32517 0.60541 0.04200
H 	H 	0.75958 0.28529 0.53551 0.04100
C 	C 	0.75402 0.40411 0.47066 0.00800
C 	C 	0.73889 0.39260 0.41768 -0.07200
H 	H 	0.70291 0.37091 0.38594 0.04800
C 	C 	0.75200 0.39458 0.34852 0.00900
C 	C 	0.73291 0.34973 0.31278 -0.04700
C 	C 	0.71412 0.33630 0.25871 -0.02900
C 	C 	0.71554 0.36775 0.24039 -0.04400
C 	C 	0.73467 0.41245 0.27584 -0.03200
H 	H 	0.78888 0.48330 0.57837 0.04700
H 	H 	0.73225 0.32529 0.32682 0.04400
H 	H 	0.69791 0.30145 0.23090 0.03000
H 	H 	0.70169 0.35748 0.19870 0.03100
C 	C 	0.62384 0.39803 0.46854 0.00800
C 	C 	0.63496 0.44223 0.49607 -0.02900
C 	C 	0.60192 0.45331 0.47676 0.00600
H 	H 	0.61092 0.48754 0.49707 0.02800
C 	C 	0.68057 0.47680 0.54583 0.02700
C 	C 	0.69614 0.47117 0.59144 -0.05700
C 	C 	0.73881 0.50439 0.63872 -0.01900
C 	C 	0.75055 0.54923 0.59554 -0.01800
C 	C 	0.70789 0.51616 0.54822 -0.06000
H 	H 	0.67516 0.44117 0.59025 0.04200
H 	H 	0.69596 0.52120 0.51365 0.04800
H 	H 	0.77158 0.57946 0.59720 0.03100
C 	C 	0.64241 0.24979 0.02524 0.03100
C 	C 	0.67260 0.29357 0.03899 -0.06200
H 	H 	0.68005 0.32220 0.07045 0.04100
C 	C 	0.68887 0.30065 0.00830 -0.00800
C 	C 	0.67565 0.26305 0.96425 -0.01100
C 	C 	0.65100 0.21944 0.95561 -0.00300
C 	C 	0.68305 0.26877 0.92391 0.02400
C 	C 	0.65602 0.27849 0.88721 -0.05200
C 	C 	0.66453 0.28629 0.85089 -0.01900
C 	C 	0.69985 0.28425 0.85089 -0.04300
C 	C 	0.72695 0.27480 0.88752 -0.01700
C 	C 	0.71843 0.26673 0.92376 -0.05500
C 	C 	0.63048 0.26318 0.09730 -0.04400
H 	H 	0.61768 0.28184 0.15627 0.03300
H 	H 	0.66602 0.27696 0.12669 0.03800
H 	H 	0.64395 0.29420 0.82298 0.02900
H 	H 	0.73989 0.25994 0.95246 0.04200
H 	H 	0.75483 0.27421 0.88818 0.03300
H 	H 	0.70668 0.29073 0.82309 0.03800
C 	C 	0.80812 0.41195 0.00879 -0.00800
C 	C 	0.79632 0.39725 0.95681 -0.05500
H 	H 	0.76101 0.37942 0.92345 0.04800
C 	C 	0.81399 0.34164 0.87244 -0.05400
C 	C 	0.79889 0.31968 0.81937 -0.03100
C 	C 	0.78376 0.33693 0.78509 -0.05200
C 	C 	0.78342 0.37600 0.80373 -0.02900
C 	C 	0.79834 0.39797 0.85672 -0.05000
H 	H 	0.79884 0.28928 0.80479 0.02700
H 	H 	0.79792 0.42817 0.87089 0.04400
H 	H 	0.77154 0.38921 0.77711 0.02700
H 	H 	0.77221 0.31998 0.74407 0.03000
C 	C 	0.67793 0.42536 0.98160 0.03300
C 	C 	0.69142 0.47053 0.00938 -0.06000
C 	C 	0.65968 0.48341 0.99233 0.02900
H 	H 	0.67019 0.51812 0.01362 0.02200
C 	C 	0.73879 0.50493 0.05518 0.03700
C 	C 	0.75494 0.50776 0.10568 -0.06200
C 	C 	0.79880 0.54236 0.14975 -0.01500
C 	C 	0.81095 0.57103 0.09314 -0.01400
C 	C 	0.76699 0.53673 0.04905 -0.06300
H 	H 	0.73343 0.48339 0.11078 0.04100
H 	H 	0.75483 0.53483 0.01022 0.04100
C 	C 	0.73456 0.02094 0.22399 -0.01600
C 	C 	0.69653 0.99876 0.22338 -0.04800
C 	C 	0.70191 0.99815 0.26962 -0.02300
C 	C 	0.74533 0.01956 0.31650 -0.05200
H 	H 	0.73033 0.02166 0.18828 0.02600
C 	C 	0.73525 0.24937 0.21178 -0.02600
H 	H 	0.70103 0.23986 0.18306 0.02900
H 	H 	0.75860 0.26528 0.16480 0.04600
H 	H 	0.72273 0.24009 0.26909 0.03600
C 	C 	0.66780 0.06694 0.45620 -0.10100
C 	C 	0.66662 0.04175 0.41321 0.05000
C 	C 	0.69919 0.06306 0.40507 -0.07100
H 	H 	0.69671 0.04476 0.37012 0.05000
C 	C 	0.73601 0.10723 0.44298 0.00900
C 	C 	0.74160 0.12908 0.49103 -0.02700
C 	C 	0.70670 0.10939 0.49651 0.00400
H 	H 	0.70980 0.12728 0.53212 0.03600
C 	C 	0.63694 0.99222 0.38275 0.00200
H 	H 	0.58197 0.99165 0.32129 0.05200
C 	C 	0.74759 0.01285 0.84242 -0.01200
H 	H 	0.72546 0.01369 0.80741 0.02900
C 	C 	0.78342 0.21323 0.90357 -0.05800
C 	C 	0.73784 0.17883 0.87288 -0.01600
C 	C 	0.71865 0.14358 0.82350 -0.04300
C 	C 	0.74503 0.14257 0.80476 -0.01800
H 	H 	0.79809 0.24043 0.94183 0.04300
H 	H 	0.71748 0.17935 0.88753 0.03200
H 	H 	0.73015 0.11518 0.76658 0.02600
H 	H 	0.68339 0.11697 0.79982 0.03600
C 	C 	0.81032 0.15574 0.02820 0.01100
C 	C 	0.79144 0.18100 0.08861 0.00500
H 	H 	0.80180 0.20378 0.12722 0.03400
C 	C 	0.74539 0.14814 0.04848 -0.10500
C 	C 	0.73228 0.11809 0.99843 0.05500
C 	C 	0.76540 0.12038 0.99050 -0.06800
H 	H 	0.75540 0.09731 0.95222 0.05300
C 	C 	0.68443 0.08919 0.95145 0.00100
C 	C 	0.66598 0.04291 0.92249 -0.05000
C 	C 	0.62272 0.08354 0.87584 -0.04700
C 	C 	0.66183 0.10910 0.92827 -0.06200
H 	H 	0.68389 0.02748 0.93907 0.04500
H 	H 	0.67615 0.14489 0.94967 0.04500
H 	H 	0.60631 0.09934 0.85742 0.03300
C 	C 	0.71138 0.14707 0.05820 0.29500
O 	O 	0.67502 0.10853 0.03786 -0.46900
O 	O 	0.71618 0.18480 0.08464 -0.26900
C 	C 	0.62683 0.05247 0.45561 0.31100
O 	O 	0.63082 0.07131 0.49987 -0.46700
O 	O 	0.58681 0.03001 0.40983 -0.36100
O 	O 	0.60344 0.13821 0.49733 -0.45800
C 	C 	0.61256 0.68997 0.46182 -0.09900
C 	C 	0.65788 0.72225 0.50521 0.00500
H 	H 	0.67719 0.71303 0.53257 0.03400
C 	C 	0.73881 0.00439 0.63872 -0.00800
C 	C 	0.75055 0.04923 0.59554 -0.01600
C 	C 	0.70789 0.01616 0.54822 -0.05600
H 	H 	0.77158 0.07946 0.59720 0.03100
C 	C 	0.64241 0.74979 0.02524 0.03100
C 	C 	0.67565 0.76305 0.96425 -0.01200
C 	C 	0.65100 0.71945 0.95561 -0.00300
C 	C 	0.68305 0.76877 0.92391 0.02400
C 	C 	0.71843 0.76673 0.92376 -0.05500
C 	C 	0.63048 0.76318 0.09730 -0.04400
H 	H 	0.73989 0.75994 0.95246 0.04200
H 	H 	0.67019 0.01812 0.01362 0.02500
C 	C 	0.79880 0.04236 0.14975 -0.01700
C 	C 	0.81095 0.07104 0.09314 -0.01400
C 	C 	0.76699 0.03673 0.04905 -0.06300
H 	H 	0.75483 0.03483 0.01022 0.04200
C 	C 	0.73456 0.52094 0.22399 -0.02100
C 	C 	0.69653 0.49876 0.22338 -0.04400
C 	C 	0.70191 0.49815 0.26962 -0.01900
C 	C 	0.74533 0.51956 0.31650 -0.05600
H 	H 	0.73033 0.52166 0.18828 0.02600
H 	H 	0.66290 0.48212 0.18710 0.03500
H 	H 	0.67245 0.48090 0.26908 0.03100
H 	H 	0.70103 0.73986 0.18306 0.02900
C 	C 	0.66780 0.56694 0.45620 -0.09900
C 	C 	0.66662 0.54175 0.41321 0.04400
C 	C 	0.69919 0.56306 0.40507 -0.07000
H 	H 	0.69671 0.54476 0.37012 0.04900
C 	C 	0.73601 0.60723 0.44298 0.00800
C 	C 	0.74160 0.62908 0.49103 -0.02600
C 	C 	0.70670 0.60939 0.49651 0.00300
H 	H 	0.70980 0.62728 0.53212 0.03600
C 	C 	0.63694 0.49222 0.38275 0.00800
C 	C 	0.59389 0.47144 0.33531 -0.04400
C 	C 	0.65364 0.46575 0.39816 -0.04500
H 	H 	0.68796 0.48154 0.43277 0.03900
H 	H 	0.58197 0.49165 0.32129 0.05400
C 	C 	0.75810 0.48855 0.90921 -0.01700
C 	C 	0.72959 0.48968 0.86398 -0.04500
C 	C 	0.74759 0.51285 0.84242 -0.01700
H 	H 	0.74407 0.47051 0.92572 0.03000
H 	H 	0.69356 0.47266 0.84568 0.03600
H 	H 	0.72546 0.51369 0.80741 0.02900
C 	C 	0.78342 0.71323 0.90357 -0.05800
C 	C 	0.73784 0.67883 0.87288 -0.01600
C 	C 	0.71865 0.64358 0.82350 -0.04300
C 	C 	0.74503 0.64257 0.80476 -0.01800
H 	H 	0.79809 0.74043 0.94183 0.04300
H 	H 	0.71748 0.67935 0.88753 0.03200
H 	H 	0.73015 0.61518 0.76658 0.02500
H 	H 	0.68339 0.61697 0.79982 0.03500
C 	C 	0.81032 0.65574 0.02820 0.01200
C 	C 	0.79144 0.68100 0.08861 0.00500
H 	H 	0.80180 0.70378 0.12722 0.03400
C 	C 	0.74539 0.64814 0.04848 -0.10500
C 	C 	0.73228 0.61809 0.99843 0.05500
C 	C 	0.76540 0.62038 0.99050 -0.06800
H 	H 	0.75540 0.59731 0.95222 0.05300
C 	C 	0.68443 0.58919 0.95145 -0.00000
C 	C 	0.66598 0.54291 0.92249 -0.04800
C 	C 	0.62272 0.58354 0.87584 -0.04900
C 	C 	0.66183 0.60910 0.92827 -0.06100
H 	H 	0.68389 0.52748 0.93907 0.04300
H 	H 	0.67615 0.64489 0.94967 0.04500
H 	H 	0.60630 0.59934 0.85742 0.03400
C 	C 	0.76747 0.26284 0.20094 -0.04200
C 	C 	0.79420 0.03536 0.86641 -0.05900
C 	C 	0.79080 0.17652 0.83570 -0.05900
C 	C 	0.79420 0.53536 0.86641 -0.05900
C 	C 	0.79080 0.67652 0.83570 -0.05900
H 	H 	0.82556 0.32810 0.89880 0.04700
H 	H 	0.83262 0.59552 0.08834 0.02900
H 	H 	0.83262 0.09552 0.08834 0.02900
Zn	Zn	0.93564 0.42091 0.91166 1.17800
C 	C 	0.94594 0.35123 0.94303 0.32600
C 	C 	0.91234 0.44222 0.98217 0.31500
O 	O 	0.91839 0.36178 0.91358 -0.46200
O 	O 	0.90204 0.43646 0.93492 -0.47500
O 	O 	0.95340 0.45324 0.01936 -0.44200
Zn	Zn	0.87342 0.41897 0.36706 1.17800
C 	C 	0.86465 0.34647 0.39888 0.32200
C 	C 	0.85198 0.44724 0.43613 0.32100
O 	O 	0.84468 0.35907 0.36468 -0.45200
O 	O 	0.84133 0.44023 0.38848 -0.47500
O 	O 	0.89098 0.45331 0.47080 -0.48100
H 	H 	0.90770 0.09703 0.28088 0.04100
H 	H 	0.88105 0.22505 0.27600 0.03700
H 	H 	0.95611 0.30774 0.86236 0.02100
H 	H 	0.92938 0.27210 0.76803 0.04000
H 	H 	0.90770 0.59703 0.28088 0.04100
C 	C 	0.84096 0.16421 0.01184 -0.00200
C 	C 	0.85256 0.13268 0.99962 -0.03900
C 	C 	0.87067 0.13331 0.97011 0.01100
C 	C 	0.87524 0.16418 0.95100 -0.05800
C 	C 	0.86890 0.19892 0.96858 0.01500
C 	C 	0.85130 0.19878 0.99866 -0.03700
H 	H 	0.84776 0.10794 0.01334 0.03600
H 	H 	0.88914 0.16451 0.92792 0.04700
H 	H 	0.84512 0.22503 0.01112 0.03800
C 	C 	0.76871 0.12963 0.43229 0.03000
C 	C 	0.77122 0.16579 0.42232 -0.06900
C 	C 	0.79761 0.18264 0.40470 0.02900
C 	C 	0.81942 0.16177 0.39442 -0.07400
C 	C 	0.81870 0.12723 0.40686 0.03200
C 	C 	0.79428 0.11201 0.42707 -0.07300
H 	H 	0.75301 0.18085 0.42850 0.05100
H 	H 	0.83951 0.17453 0.38037 0.04800
H 	H 	0.79479 0.08614 0.43823 0.04900
C 	C 	0.80826 0.36288 0.66194 -0.04200
C 	C 	0.80468 0.33682 0.61781 -0.02000
H 	H 	0.77233 0.37968 0.69119 0.02400
H 	H 	0.83485 0.34058 0.62122 0.02500
H 	H 	0.84117 0.38643 0.69963 0.01900
C 	C 	0.80059 0.43365 0.51220 -0.02600
C 	C 	0.83127 0.45144 0.50011 0.00500
H 	H 	0.86696 0.47470 0.53234 0.03400
C 	C 	0.81690 0.43707 0.44684 -0.10100
C 	C 	0.76976 0.40830 0.40515 0.04600
C 	C 	0.75190 0.42570 0.32959 -0.03800
C 	C 	0.81820 0.44386 0.56810 0.03000
C 	C 	0.84714 0.43000 0.59379 -0.05500
C 	C 	0.86878 0.44463 0.64849 -0.01500
C 	C 	0.86068 0.47202 0.67749 -0.04100
C 	C 	0.83131 0.48528 0.65196 -0.01600
C 	C 	0.81037 0.47161 0.59746 -0.05500
H 	H 	0.89155 0.43441 0.66832 0.03000
H 	H 	0.87720 0.48300 0.71977 0.03200
H 	H 	0.82542 0.50679 0.67463 0.03000
H 	H 	0.85358 0.40872 0.57159 0.04500
H 	H 	0.76660 0.46034 0.35689 0.04400
H 	H 	0.73631 0.43681 0.26168 0.03400
C 	C 	0.76597 0.54340 0.64078 -0.04600
H 	H 	0.75085 0.49990 0.67376 0.02700
H 	H 	0.79902 0.56904 0.67740 0.03500
C 	C 	0.85404 0.43554 0.05236 -0.01800
C 	C 	0.88774 0.44479 0.04327 -0.01200
H 	H 	0.92308 0.46414 0.07700 0.04500
C 	C 	0.87594 0.42954 0.99086 -0.08200
C 	C 	0.82929 0.40387 0.94717 0.03600
C 	C 	0.81414 0.38110 0.89142 0.01500
C 	C 	0.86703 0.45078 0.10748 0.02800
C 	C 	0.87766 0.42649 0.13394 -0.05700
C 	C 	0.88574 0.43839 0.18416 -0.01200
C 	C 	0.88363 0.47473 0.20826 -0.04600
C 	C 	0.87380 0.49943 0.18240 -0.01400
C 	C 	0.86560 0.48762 0.13215 -0.05400
H 	H 	0.89352 0.41940 0.20435 -0.01000
H 	H 	0.88958 0.48376 0.24695 0.01000
H 	H 	0.87233 0.52756 0.20118 0.02600
H 	H 	0.85722 0.50644 0.11193 0.04600
H 	H 	0.87874 0.39793 0.11513 0.04300
C 	C 	0.82683 0.57389 0.14347 -0.04700
H 	H 	0.81108 0.54472 0.18876 0.02400
H 	H 	0.86087 0.60047 0.17759 0.03700
C 	C 	0.84819 0.11101 0.40548 0.00500
C 	C 	0.82957 0.06693 0.36755 -0.02600
C 	C 	0.85574 0.04735 0.37649 0.00400
H 	H 	0.84071 0.01257 0.34899 0.02600
C 	C 	0.90029 0.07168 0.42280 -0.10300
C 	C 	0.89430 0.13714 0.44740 -0.06500
C 	C 	0.78362 0.04211 0.31739 0.02500
C 	C 	0.77806 0.04261 0.27088 -0.05800
H 	H 	0.74918 0.01843 0.35192 0.04100
H 	H 	0.80738 0.06016 0.27125 0.03900
C 	C 	0.83736 0.30551 0.39774 -0.10000
C 	C 	0.80578 0.26388 0.34997 0.04400
C 	C 	0.78937 0.22393 0.35274 -0.07100
H 	H 	0.76564 0.19186 0.31631 0.04600
C 	C 	0.80662 0.22494 0.40251 0.00700
C 	C 	0.83750 0.26678 0.44996 -0.02500
C 	C 	0.84925 0.30653 0.44658 0.00600
H 	H 	0.87245 0.33864 0.48300 0.03700
C 	C 	0.86325 0.26975 0.50287 0.03000
C 	C 	0.89488 0.30680 0.59720 -0.01500
C 	C 	0.86213 0.29320 0.54425 -0.05600
C 	C 	0.79190 0.26152 0.29740 0.00900
C 	C 	0.74746 0.24913 0.26017 -0.04900
C 	C 	0.81126 0.27359 0.23701 -0.03000
C 	C 	0.82340 0.27260 0.28495 -0.04900
H 	H 	0.83602 0.28339 0.22822 0.02100
H 	H 	0.85779 0.28269 0.31361 0.04200
H 	H 	0.83742 0.30295 0.53564 0.04100
H 	H 	0.89523 0.32664 0.62923 0.02400
C 	C 	0.78528 0.16977 0.53777 0.02800
C 	C 	0.82401 0.16726 0.56232 -0.05400
C 	C 	0.86242 0.20180 0.61303 -0.01700
C 	C 	0.86211 0.23855 0.63981 -0.04300
C 	C 	0.82413 0.24177 0.61508 -0.01900
C 	C 	0.78620 0.20807 0.56366 -0.05700
H 	H 	0.82365 0.13773 0.54311 0.04400
H 	H 	0.89217 0.19976 0.63193 0.03100
H 	H 	0.75666 0.21056 0.54505 0.04200
H 	H 	0.82404 0.27029 0.63588 0.02500
H 	H 	0.89179 0.26520 0.67907 0.03000
C 	C 	0.89554 0.11082 0.97159 0.03000
C 	C 	0.87278 0.06368 0.94202 -0.03700
C 	C 	0.89805 0.04351 0.94544 0.01400
H 	H 	0.88077 0.00727 0.92257 0.03300
C 	C 	0.94534 0.06941 0.98232 -0.11600
C 	C 	0.94281 0.13684 0.00589 -0.09500
C 	C 	0.82309 0.03519 0.91256 0.03100
C 	C 	0.80475 0.01116 0.93348 -0.05600
H 	H 	0.80801 0.05391 0.85005 0.04300
H 	H 	0.82674 0.01087 0.96915 0.04800
C 	C 	0.92669 0.30828 0.94388 -0.11200
C 	C 	0.95454 0.29930 0.98168 0.08700
C 	C 	0.93483 0.26688 0.99348 -0.07700
H 	H 	0.95620 0.26099 0.02364 0.05300
C 	C 	0.88776 0.23872 0.96302 0.02000
C 	C 	0.85981 0.24408 0.92133 -0.03400
C 	C 	0.87935 0.27889 0.91206 0.01000
H 	H 	0.85774 0.28310 0.88017 0.03300
C 	C 	0.81030 0.21178 0.88551 0.03000
H 	H 	0.81135 0.17486 0.82162 0.04100
C 	C 	0.82389 0.18579 0.07821 -0.03100
C 	C 	0.87137 0.22378 0.11837 0.02800
C 	C 	0.90640 0.21549 0.13965 -0.05700
C 	C 	0.95158 0.25100 0.17148 -0.01600
C 	C 	0.96199 0.29489 0.18284 -0.04400
C 	C 	0.92729 0.30354 0.16344 -0.01900
C 	C 	0.88204 0.26811 0.13122 -0.06200
H 	H 	0.97852 0.24444 0.18696 0.03500
H 	H 	0.93546 0.33762 0.17270 0.02500
H 	H 	0.85531 0.27489 0.11493 0.03900
H 	H 	0.89856 0.18146 0.13031 0.04300
C 	C 	0.84096 0.66421 0.01184 -0.00200
C 	C 	0.85256 0.63268 0.99962 -0.03800
C 	C 	0.87067 0.63331 0.97011 0.01100
C 	C 	0.87524 0.66418 0.95100 -0.05800
C 	C 	0.86890 0.69892 0.96858 0.01500
C 	C 	0.85130 0.69878 0.99866 -0.03700
H 	H 	0.84776 0.60794 0.01334 0.03600
H 	H 	0.88914 0.66451 0.92792 0.04700
H 	H 	0.84512 0.72503 0.01112 0.03700
C 	C 	0.76871 0.62963 0.43229 0.03000
C 	C 	0.77122 0.66579 0.42232 -0.06900
C 	C 	0.79761 0.68264 0.40470 0.02900
C 	C 	0.81942 0.66177 0.39442 -0.07400
C 	C 	0.81870 0.62723 0.40686 0.03100
C 	C 	0.79428 0.61201 0.42707 -0.07300
H 	H 	0.75301 0.68085 0.42850 0.05100
H 	H 	0.83951 0.67453 0.38037 0.04800
H 	H 	0.79479 0.58614 0.43823 0.04800
C 	C 	0.76597 0.04340 0.64078 -0.04900
H 	H 	0.75085 0.99990 0.67376 0.02200
H 	H 	0.79902 0.06904 0.67740 0.03600
C 	C 	0.87380 0.99943 0.18240 -0.01900
H 	H 	0.87233 0.02755 0.20118 0.03000
H 	H 	0.85722 0.00644 0.11193 0.04900
C 	C 	0.82683 0.07389 0.14347 -0.04600
H 	H 	0.81108 0.04472 0.18876 0.02500
H 	H 	0.86087 0.10047 0.17759 0.03700
C 	C 	0.84819 0.61101 0.40548 0.00600
C 	C 	0.82957 0.56693 0.36755 -0.02700
C 	C 	0.85574 0.54735 0.37649 0.00400
H 	H 	0.84071 0.51257 0.34899 0.02400
C 	C 	0.90029 0.57168 0.42280 -0.10300
C 	C 	0.89430 0.63714 0.44740 -0.06500
C 	C 	0.78362 0.54211 0.31739 0.02500
C 	C 	0.77806 0.54261 0.27088 -0.05800
H 	H 	0.74918 0.51843 0.35192 0.04100
H 	H 	0.80738 0.56016 0.27125 0.03900
C 	C 	0.78937 0.72393 0.35274 -0.07100
H 	H 	0.76564 0.69186 0.31631 0.04600
C 	C 	0.80662 0.72494 0.40251 0.00700
C 	C 	0.78528 0.66977 0.53777 0.02800
C 	C 	0.82401 0.66726 0.56232 -0.05400
C 	C 	0.86242 0.70180 0.61303 -0.01700
C 	C 	0.86211 0.73855 0.63981 -0.04300
C 	C 	0.82413 0.74177 0.61508 -0.01900
C 	C 	0.78619 0.70807 0.56366 -0.05700
H 	H 	0.82365 0.63773 0.54311 0.04400
H 	H 	0.89217 0.69976 0.63193 0.03100
H 	H 	0.75666 0.71057 0.54505 0.04200
C 	C 	0.89554 0.61082 0.97159 0.03100
C 	C 	0.87278 0.56368 0.94202 -0.03800
C 	C 	0.89805 0.54351 0.94544 0.01400
H 	H 	0.88077 0.50727 0.92257 0.03200
C 	C 	0.94534 0.56941 0.98232 -0.11600
C 	C 	0.94281 0.63684 0.00589 -0.09600
C 	C 	0.82309 0.53519 0.91256 0.03100
C 	C 	0.80475 0.51116 0.93348 -0.06100
H 	H 	0.80801 0.55391 0.85005 0.04300
H 	H 	0.82674 0.51087 0.96915 0.04800
C 	C 	0.88776 0.73872 0.96302 0.02000
C 	C 	0.85981 0.74408 0.92133 -0.03400
C 	C 	0.81030 0.71178 0.88551 0.03000
H 	H 	0.81135 0.67486 0.82162 0.04100
C 	C 	0.82389 0.68579 0.07821 -0.03100
C 	C 	0.87137 0.72378 0.11837 0.02800
C 	C 	0.90639 0.71549 0.13965 -0.05700
C 	C 	0.95158 0.75100 0.17148 -0.01600
C 	C 	0.88204 0.76811 0.13122 -0.06200
H 	H 	0.97852 0.74444 0.18696 0.03500
H 	H 	0.85531 0.77489 0.11493 0.03900
H 	H 	0.89856 0.68146 0.13031 0.04300
C 	C 	0.97000 0.54676 0.99401 0.34400
H 	H 	0.91670 0.26318 0.23880 0.03300
C 	C 	0.97000 0.04676 0.99401 0.34400
O 	O 	0.00839 0.55355 0.83112 -0.45200
C 	C 	0.97597 0.31818 0.31571 -0.05500
O 	O 	0.00839 0.05355 0.83112 -0.45200
C 	C 	0.93458 0.27631 0.35765 -0.01400
H 	H 	0.91852 0.26006 0.37381 0.03300
C 	C 	0.01597 0.30353 0.97166 -0.06300
C 	C 	0.96205 0.14869 0.36199 0.03200
C 	C 	0.96205 0.64869 0.36199 0.03300
H 	H 	0.93966 0.15118 0.37257 0.02200
H 	H 	0.93966 0.65118 0.37257 0.02200
O 	O 	0.00084 0.50541 0.88968 -0.93100
O 	O 	0.96399 0.48929 0.35346 -0.86400
C 	C 	0.99155 0.52514 0.74286 -0.10800
C 	C 	0.98431 0.50184 0.65849 0.04800
H 	H 	0.98255 0.53054 0.65562 0.03000
H 	H 	0.98886 0.55331 0.73958 0.07200
C 	C 	0.01461 0.51183 0.24307 -0.13700
H 	H 	0.06158 0.53560 0.20293 0.02700
H 	H 	0.01889 0.54189 0.23927 0.06500
C 	C 	0.99155 0.02514 0.74286 -0.10100
C 	C 	0.98431 0.00184 0.65849 0.06100
H 	H 	0.98255 0.03054 0.65562 0.02800
H 	H 	0.98886 0.05331 0.73958 0.07100
C 	C 	0.01461 0.01183 0.24307 -0.12900
H 	H 	0.06158 0.03560 0.20293 0.02500
H 	H 	0.01889 0.04189 0.23927 0.06300
H 	H 	0.99663 0.15674 0.11758 0.06700
H 	H 	0.99663 0.65674 0.11758 0.06700
Zn	Zn	0.02079 0.44348 0.00263 1.17700
O 	O 	0.96634 0.51777 0.95522 -0.45000
Zn	Zn	0.01992 0.52060 0.05507 1.19600
O 	O 	0.99011 0.37870 0.97239 -0.44600
O 	O 	0.99273 0.44348 0.93106 -0.78700
O 	O 	0.05235 0.51832 0.11933 -0.50100
O 	O 	0.99167 0.55193 0.04217 -0.48800
H 	H 	0.96816 0.49451 0.86925 0.19000
Zn	Zn	0.95037 0.43276 0.46304 1.19400
O 	O 	0.92355 0.51903 0.40649 -0.45300
Zn	Zn	0.95989 0.51714 0.50985 1.20200
O 	O 	0.90911 0.36860 0.43274 -0.46000
C 	C 	0.97702 0.47602 0.57761 0.38300
O 	O 	0.93073 0.43212 0.39165 -0.79800
C 	C 	0.92240 0.54755 0.44036 0.32100
O 	O 	0.98082 0.51311 0.57549 -0.48000
O 	O 	0.93602 0.55088 0.48765 -0.48700
H 	H 	0.93325 0.48285 0.32901 0.15700
C 	C 	0.97290 0.11494 0.29653 0.03100
C 	C 	0.94402 0.11805 0.31032 -0.08200
H 	H 	0.95893 0.09151 0.25638 0.02800
C 	C 	0.91348 0.25654 0.30252 -0.04400
C 	C 	0.93367 0.27796 0.28151 -0.02000
C 	C 	0.97897 0.32015 0.85158 0.02800
C 	C 	0.96386 0.30010 0.79831 -0.08000
C 	C 	0.99340 0.31587 0.78426 0.03100
H 	H 	0.98165 0.30030 0.74298 0.01800
O 	O 	0.96634 0.01777 0.95522 -0.44800
Zn	Zn	0.01992 0.02060 0.05507 1.19700
O 	O 	0.05235 0.01832 0.11933 -0.49800
O 	O 	0.99167 0.05193 0.04217 -0.48700
O 	O 	0.92355 0.01903 0.40649 -0.45100
Zn	Zn	0.95989 0.01714 0.50985 1.20400
C 	C 	0.92240 0.04755 0.44036 0.32100
O 	O 	0.98082 0.01311 0.57549 -0.47700
O 	O 	0.93602 0.05088 0.48765 -0.48600
C 	C 	0.97290 0.61494 0.29653 0.03200
C 	C 	0.94402 0.61805 0.31032 -0.08300
H 	H 	0.95893 0.59151 0.25638 0.02800
C 	C 	0.92051 0.11773 0.45683 0.03500
H 	H 	0.90912 0.17190 0.47477 0.04700
C 	C 	0.96851 0.14533 0.50393 0.04400
H 	H 	0.95325 0.16305 0.56099 0.03800
C 	C 	0.89602 0.25799 0.51496 -0.05200
C 	C 	0.92697 0.26938 0.56762 -0.01600
C 	C 	0.92699 0.29454 0.60882 -0.04100
H 	H 	0.89897 0.24213 0.48408 0.04500
H 	H 	0.95191 0.25996 0.57668 0.03300
H 	H 	0.95179 0.30441 0.64976 0.03600
C 	C 	0.96770 0.11632 0.01449 0.07600
H 	H 	0.95994 0.17297 0.02961 0.06000
C 	C 	0.01501 0.14249 0.06303 -0.01800
C 	C 	0.00309 0.31902 0.00382 -0.03100
H 	H 	0.99052 0.27843 0.92999 0.06400
H 	H 	0.99691 0.32215 0.20640 0.04400
C 	C 	0.92051 0.61773 0.45683 0.03500
H 	H 	0.90912 0.67190 0.47477 0.04700
C 	C 	0.96851 0.64533 0.50393 0.04400
H 	H 	0.95325 0.66305 0.56099 0.03800
H 	H 	0.89897 0.74213 0.48408 0.04500
C 	C 	0.96770 0.61632 0.01449 0.07600
H 	H 	0.95994 0.67297 0.02961 0.06000
C 	C 	0.01501 0.64249 0.06303 -0.01900
H 	H 	0.38105 0.72505 0.27600 0.03500
H 	H 	0.88105 0.72505 0.27600 0.03700
H 	H 	0.19596 0.02121 0.51365 0.04800
H 	H 	0.69596 0.02121 0.51365 0.04900
C 	C 	0.23525 0.74937 0.21178 -0.02600
H 	H 	0.22273 0.74009 0.26909 0.03600
C 	C 	0.73525 0.74937 0.21178 -0.02600
H 	H 	0.72273 0.74009 0.26909 0.03600
H 	H 	0.16602 0.77696 0.12669 0.03800
H 	H 	0.45191 0.75996 0.57668 0.02900
H 	H 	0.66602 0.77696 0.12669 0.03800
H 	H 	0.95191 0.75996 0.57668 0.03300
H 	H 	0.08995 0.75510 0.40579 0.04300
C 	C 	0.15353 0.77870 0.47819 0.00400
C 	C 	0.17260 0.79357 0.03899 -0.06200
H 	H 	0.18005 0.82220 0.07045 0.04100
C 	C 	0.18887 0.80065 0.00830 -0.00700
H 	H 	0.11769 0.78184 0.15627 0.03200
C 	C 	0.06179 0.82007 0.99352 -0.00600
H 	H 	0.07166 0.80816 0.96863 0.02600
C 	C 	0.17280 0.82589 0.48818 0.02900
C 	C 	0.17796 0.76684 0.51464 -0.02600
C 	C 	0.15602 0.77849 0.88721 -0.05300
H 	H 	0.12895 0.78065 0.88744 0.04000
H 	H 	0.14395 0.79420 0.82298 0.02600
C 	C 	0.16453 0.78629 0.85089 -0.02000
C 	C 	0.19985 0.78425 0.85089 -0.04400
H 	H 	0.22592 0.82870 0.47990 0.05100
C 	C 	0.22307 0.80135 0.56469 0.02600
C 	C 	0.30468 0.83682 0.61781 -0.02100
C 	C 	0.26217 0.80584 0.56933 -0.05700
H 	H 	0.25958 0.78529 0.53551 0.04100
H 	H 	0.33485 0.84058 0.62122 0.02500
H 	H 	0.19790 0.80145 0.23090 0.02900
C 	C 	0.22695 0.77480 0.88752 -0.01800
H 	H 	0.25483 0.77421 0.88818 0.03200
H 	H 	0.20668 0.79073 0.82309 0.03700
C 	C 	0.29889 0.81969 0.81937 -0.03200
H 	H 	0.32556 0.82810 0.89880 0.04600
H 	H 	0.29884 0.78928 0.80479 0.02700
H 	H 	0.27221 0.81998 0.74407 0.02900
C 	C 	0.33736 0.80551 0.39774 -0.10000
C 	C 	0.30578 0.76388 0.34997 0.04400
C 	C 	0.33750 0.76678 0.44996 -0.02600
C 	C 	0.34925 0.80653 0.44658 0.00600
C 	C 	0.36325 0.76975 0.50287 0.03000
C 	C 	0.36213 0.79320 0.54425 -0.05600
C 	C 	0.29190 0.76152 0.29740 0.00900
C 	C 	0.24746 0.74914 0.26017 -0.04800
C 	C 	0.26747 0.76284 0.20094 -0.04200
C 	C 	0.31126 0.77360 0.23701 -0.03000
C 	C 	0.32340 0.77260 0.28495 -0.04800
H 	H 	0.25860 0.76528 0.16480 0.04600
H 	H 	0.33602 0.78339 0.22822 0.02100
H 	H 	0.35779 0.78269 0.31361 0.04200
H 	H 	0.33742 0.80295 0.53564 0.04100
H 	H 	0.32404 0.77029 0.63588 0.02500
H 	H 	0.39179 0.76520 0.67907 0.02900
C 	C 	0.42669 0.80828 0.94388 -0.10600
C 	C 	0.45454 0.79930 0.98168 0.05700
C 	C 	0.43483 0.76688 0.99348 -0.06700
C 	C 	0.37935 0.77889 0.91206 0.00600
H 	H 	0.35774 0.78310 0.88017 0.03400
C 	C 	0.46199 0.79489 0.18284 -0.04600
C 	C 	0.42729 0.80354 0.16344 -0.02100
H 	H 	0.43546 0.83762 0.17270 0.02000
H 	H 	0.42938 0.77210 0.76803 0.02900
C 	C 	0.39488 0.80680 0.59720 -0.01600
H 	H 	0.39522 0.82664 0.62923 0.02300
C 	C 	0.39602 0.75799 0.51496 -0.05300
C 	C 	0.42697 0.76938 0.56762 -0.01700
C 	C 	0.42700 0.79454 0.60882 -0.04200
H 	H 	0.45179 0.80441 0.64976 0.03100
H 	H 	0.45621 0.76099 0.02364 0.04100
C 	C 	0.50309 0.81902 0.00382 -0.00700
C 	C 	0.56179 0.82007 0.99352 -0.01700
C 	C 	0.51597 0.80353 0.97166 -0.03000
H 	H 	0.57166 0.80816 0.96863 0.03300
H 	H 	0.49052 0.77843 0.92999 0.03800
H 	H 	0.49691 0.82215 0.20640 0.03300
H 	H 	0.58995 0.75510 0.40579 0.04800
C 	C 	0.43458 0.77631 0.35765 -0.02600
C 	C 	0.41348 0.75653 0.30252 -0.03700
C 	C 	0.43367 0.77795 0.28151 -0.03100
H 	H 	0.41852 0.76006 0.37381 0.03300
H 	H 	0.41670 0.76318 0.23880 0.03500
H 	H 	0.62895 0.78065 0.88744 0.04300
C 	C 	0.47897 0.82015 0.85158 -0.03400
C 	C 	0.46386 0.80010 0.79831 -0.04300
C 	C 	0.49340 0.81587 0.78426 -0.03200
H 	H 	0.45611 0.80774 0.86236 0.03300
H 	H 	0.48164 0.80030 0.74298 0.02700
C 	C 	0.67280 0.82589 0.48818 0.02800
H 	H 	0.72592 0.82870 0.47990 0.05100
C 	C 	0.65353 0.77870 0.47819 0.00800
C 	C 	0.67796 0.76684 0.51464 -0.02800
C 	C 	0.72307 0.80135 0.56469 0.02700
C 	C 	0.76217 0.80584 0.56933 -0.05700
H 	H 	0.75958 0.78529 0.53551 0.04100
H 	H 	0.69790 0.80145 0.23090 0.03000
C 	C 	0.67260 0.79357 0.03899 -0.06200
H 	H 	0.68005 0.82220 0.07045 0.04100
C 	C 	0.68887 0.80065 0.00830 -0.00700
C 	C 	0.65602 0.77849 0.88721 -0.05200
C 	C 	0.66453 0.78629 0.85089 -0.01900
C 	C 	0.69985 0.78425 0.85089 -0.04300
C 	C 	0.72695 0.77480 0.88752 -0.01700
H 	H 	0.61768 0.78184 0.15627 0.03300
H 	H 	0.64395 0.79420 0.82298 0.02900
H 	H 	0.75483 0.77421 0.88818 0.03300
H 	H 	0.70668 0.79073 0.82309 0.03800
C 	C 	0.79889 0.81969 0.81937 -0.03200
H 	H 	0.79884 0.78928 0.80479 0.02700
H 	H 	0.77221 0.81998 0.74407 0.03000
H 	H 	0.75860 0.76528 0.16480 0.04600
C 	C 	0.76747 0.76284 0.20094 -0.04200
H 	H 	0.82556 0.82810 0.89880 0.04700
H 	H 	0.95611 0.80774 0.86236 0.02100
H 	H 	0.92938 0.77210 0.76803 0.04000
C 	C 	0.80468 0.83682 0.61781 -0.02000
H 	H 	0.83485 0.84058 0.62122 0.02500
C 	C 	0.83736 0.80551 0.39774 -0.10000
C 	C 	0.80578 0.76388 0.34997 0.04400
C 	C 	0.83750 0.76678 0.44996 -0.02500
C 	C 	0.84925 0.80653 0.44658 0.00600
C 	C 	0.86325 0.76975 0.50287 0.03000
C 	C 	0.89488 0.80680 0.59720 -0.01500
C 	C 	0.86213 0.79320 0.54425 -0.05600
C 	C 	0.79190 0.76152 0.29740 0.00900
C 	C 	0.74746 0.74914 0.26017 -0.04900
C 	C 	0.81126 0.77360 0.23701 -0.03000
C 	C 	0.82340 0.77260 0.28495 -0.04900
H 	H 	0.83602 0.78339 0.22822 0.02100
H 	H 	0.85779 0.78269 0.31361 0.04200
H 	H 	0.83742 0.80295 0.53564 0.04100
H 	H 	0.89523 0.82664 0.62923 0.02400
H 	H 	0.82404 0.77029 0.63588 0.02500
H 	H 	0.89179 0.76520 0.67907 0.03000
C 	C 	0.92669 0.80828 0.94388 -0.11200
C 	C 	0.95454 0.79930 0.98168 0.08700
C 	C 	0.93483 0.76688 0.99348 -0.07700
H 	H 	0.95620 0.76099 0.02364 0.05300
C 	C 	0.87935 0.77889 0.91206 0.01000
H 	H 	0.85774 0.78310 0.88017 0.03300
C 	C 	0.96199 0.79489 0.18284 -0.04400
C 	C 	0.92729 0.80354 0.16344 -0.01900
H 	H 	0.93546 0.83762 0.17270 0.02400
H 	H 	0.91670 0.76318 0.23880 0.03300
C 	C 	0.93458 0.77631 0.35765 -0.01400
H 	H 	0.91852 0.76006 0.37381 0.03300
C 	C 	0.01597 0.80353 0.97166 -0.06400
C 	C 	0.91348 0.75653 0.30252 -0.04400
C 	C 	0.93367 0.77795 0.28151 -0.02000
C 	C 	0.97897 0.82015 0.85158 0.02900
C 	C 	0.96386 0.80010 0.79831 -0.08000
C 	C 	0.99340 0.81587 0.78426 0.03100
H 	H 	0.98164 0.80030 0.74298 0.01700
C 	C 	0.89602 0.75799 0.51496 -0.05200
C 	C 	0.92697 0.76938 0.56762 -0.01600
C 	C 	0.92699 0.79454 0.60882 -0.04100
H 	H 	0.95179 0.80441 0.64976 0.03500
C 	C 	0.00309 0.81902 0.00382 -0.03000
H 	H 	0.99052 0.77843 0.92999 0.06500
H 	H 	0.99691 0.82215 0.20640 0.04300
C 	C 	0.12699 0.01758 0.87008 -0.03200
C 	C 	0.62699 0.01758 0.87008 -0.03200
C 	C 	0.21337 0.84703 0.01705 0.02900
C 	C 	0.22687 0.82834 0.60870 -0.05500
C 	C 	0.71337 0.84703 0.01705 0.02900
C 	C 	0.72687 0.82834 0.60870 -0.05500
H 	H 	0.06158 0.86196 0.29923 0.02400
C 	C 	0.19158 0.87099 0.01046 -0.07300
H 	H 	0.15965 0.85807 0.00593 0.04300
C 	C 	0.14995 0.84771 0.49217 -0.07500
H 	H 	0.12225 0.83243 0.49535 0.04500
C 	C 	0.04544 0.87531 0.40773 0.00000
C 	C 	0.07918 0.86508 0.42430 -0.05700
H 	H 	0.07029 0.83090 0.40367 0.03700
C 	C 	0.99762 0.83785 0.37117 0.04900
C 	C 	0.97631 0.81713 0.39192 -0.06100
H 	H 	0.99285 0.83186 0.43467 0.04900
C 	C 	0.10166 0.90701 0.91931 0.03800
C 	C 	0.13375 0.89468 0.93524 -0.07800
H 	H 	0.12353 0.86020 0.91328 0.04800
C 	C 	0.05360 0.87147 0.87718 0.03600
C 	C 	0.02376 0.85575 0.89101 -0.10800
H 	H 	0.06114 0.86322 0.81258 0.04600
H 	H 	0.03549 0.87079 0.93231 0.04200
C 	C 	0.08208 0.86668 0.07994 -0.02600
C 	C 	0.09478 0.85150 0.04763 -0.05000
H 	H 	0.10766 0.89083 0.12188 0.03000
H 	H 	0.13017 0.86388 0.06461 0.03400
C 	C 	0.20782 0.90842 0.00318 0.01700
C 	C 	0.15858 0.88573 0.48480 0.03000
C 	C 	0.03827 0.85142 0.82360 -0.10400
C 	C 	0.03634 0.85042 0.05821 -0.03500
H 	H 	0.27154 0.88921 0.77711 0.02600
C 	C 	0.27179 0.90178 0.01684 0.03500
C 	C 	0.25516 0.86430 0.02394 -0.07300
H 	H 	0.27276 0.84652 0.03039 0.04900
C 	C 	0.22047 0.88637 0.48211 0.02800
C 	C 	0.20875 0.84581 0.48420 -0.07000
C 	C 	0.26944 0.85904 0.65720 -0.02200
C 	C 	0.30826 0.86288 0.66194 -0.04200
H 	H 	0.19685 0.82517 0.60541 0.04000
H 	H 	0.27233 0.87969 0.69119 0.02400
H 	H 	0.34117 0.88643 0.69963 0.01800
C 	C 	0.23889 0.89260 0.41768 -0.07100
H 	H 	0.20291 0.87091 0.38594 0.04700
C 	C 	0.23291 0.84973 0.31278 -0.04800
C 	C 	0.21412 0.83630 0.25871 -0.02900
C 	C 	0.21555 0.86776 0.24039 -0.04400
H 	H 	0.35358 0.90872 0.57159 0.04500
H 	H 	0.23225 0.82529 0.32682 0.04300
H 	H 	0.20169 0.85748 0.19870 0.03100
C 	C 	0.32929 0.90387 0.94717 0.03600
C 	C 	0.29632 0.89725 0.95681 -0.05500
H 	H 	0.26101 0.87942 0.92345 0.04800
C 	C 	0.31414 0.88110 0.89142 0.01400
C 	C 	0.31399 0.84164 0.87244 -0.05400
C 	C 	0.28376 0.83693 0.78509 -0.05200
C 	C 	0.28342 0.87600 0.80373 -0.03000
C 	C 	0.29834 0.89797 0.85672 -0.05000
H 	H 	0.37874 0.89793 0.11513 0.04100
C 	C 	0.44594 0.85123 0.94303 0.32300
O 	O 	0.41839 0.86178 0.91358 -0.46300
C 	C 	0.36465 0.84647 0.39888 0.32300
O 	O 	0.34468 0.85907 0.36468 -0.45200
H 	H 	0.99211 0.83379 0.29925 0.05300
H 	H 	0.37245 0.83864 0.48300 0.03700
C 	C 	0.53634 0.85042 0.05821 -0.03700
C 	C 	0.58208 0.86668 0.07994 -0.02500
C 	C 	0.59479 0.85150 0.04763 -0.04700
H 	H 	0.60766 0.89083 0.12188 0.03100
H 	H 	0.63017 0.86388 0.06461 0.03300
H 	H 	0.52670 0.86203 0.08358 0.04200
H 	H 	0.56158 0.86196 0.29923 0.03200
O 	O 	0.49011 0.87870 0.97239 -0.46400
O 	O 	0.40911 0.86860 0.43274 -0.46200
C 	C 	0.54544 0.87531 0.40773 0.04800
C 	C 	0.57918 0.86508 0.42430 -0.07300
H 	H 	0.57029 0.83090 0.40367 0.04800
C 	C 	0.49761 0.83785 0.37117 0.00300
C 	C 	0.47631 0.81713 0.39192 -0.04600
C 	C 	0.47597 0.81818 0.31571 -0.03900
H 	H 	0.49211 0.83379 0.29925 0.03900
H 	H 	0.49285 0.83186 0.43467 0.03600
C 	C 	0.60166 0.90701 0.91931 0.05300
C 	C 	0.63375 0.89468 0.93524 -0.08400
H 	H 	0.62352 0.86020 0.91328 0.05100
C 	C 	0.55360 0.87147 0.87718 0.00100
C 	C 	0.52376 0.85575 0.89101 -0.04500
C 	C 	0.53827 0.85142 0.82360 -0.04200
H 	H 	0.56114 0.86322 0.81258 0.03700
H 	H 	0.53549 0.87079 0.93231 0.03400
H 	H 	0.02670 0.86203 0.08358 0.03400
C 	C 	0.77179 0.90178 0.01684 0.03400
C 	C 	0.70782 0.90842 0.00318 0.01600
C 	C 	0.69158 0.87099 0.01046 -0.07200
C 	C 	0.75516 0.86430 0.02394 -0.07300
H 	H 	0.65965 0.85807 0.00593 0.04300
H 	H 	0.77276 0.84652 0.03039 0.04900
C 	C 	0.72047 0.88637 0.48211 0.02700
C 	C 	0.65858 0.88573 0.48480 0.02700
C 	C 	0.64995 0.84771 0.49217 -0.07300
C 	C 	0.70876 0.84581 0.48420 -0.06800
H 	H 	0.62225 0.83243 0.49535 0.04700
C 	C 	0.76944 0.85904 0.65720 -0.02100
H 	H 	0.69685 0.82517 0.60541 0.04200
C 	C 	0.73889 0.89260 0.41768 -0.07200
H 	H 	0.70291 0.87091 0.38594 0.04800
C 	C 	0.73291 0.84973 0.31278 -0.04700
C 	C 	0.71412 0.83630 0.25871 -0.02900
C 	C 	0.71555 0.86776 0.24039 -0.04400
H 	H 	0.73225 0.82529 0.32682 0.04400
H 	H 	0.70169 0.85748 0.19870 0.03100
C 	C 	0.79632 0.89725 0.95681 -0.05500
H 	H 	0.76101 0.87942 0.92345 0.04800
C 	C 	0.81399 0.84164 0.87244 -0.05400
C 	C 	0.78376 0.83693 0.78509 -0.05200
C 	C 	0.78342 0.87600 0.80373 -0.03000
C 	C 	0.79834 0.89797 0.85672 -0.05000
H 	H 	0.77154 0.88921 0.77711 0.02600
C 	C 	0.94594 0.85123 0.94303 0.32600
O 	O 	0.91839 0.86178 0.91358 -0.46200
C 	C 	0.86465 0.84647 0.39888 0.32200
O 	O 	0.84468 0.85907 0.36468 -0.45200
C 	C 	0.80826 0.86288 0.66194 -0.04200
H 	H 	0.77233 0.87969 0.69119 0.02400
H 	H 	0.84117 0.88643 0.69963 0.01900
H 	H 	0.85358 0.90872 0.57159 0.04500
C 	C 	0.82929 0.90387 0.94717 0.03600
C 	C 	0.81414 0.88110 0.89142 0.01400
H 	H 	0.87874 0.89793 0.11513 0.04300
H 	H 	0.87245 0.83864 0.48300 0.03700
C 	C 	0.97597 0.81818 0.31571 -0.05500
O 	O 	0.99011 0.87870 0.97239 -0.44700
O 	O 	0.90911 0.86860 0.43274 -0.46000
H 	H 	0.07761 0.01910 0.80476 0.02900
H 	H 	0.57761 0.01910 0.80476 0.03600
H 	H 	0.13969 0.89851 0.37907 0.03300
H 	H 	0.32542 0.00679 0.67463 0.03300
H 	H 	0.63968 0.89851 0.37907 0.03400
H 	H 	0.82542 0.00679 0.67463 0.03400
C 	C 	0.06632 0.92449 0.30590 -0.02900
C 	C 	0.08266 0.89825 0.32221 -0.03700
C 	C 	0.12655 0.91887 0.36772 -0.02300
H 	H 	0.03255 0.90847 0.27016 0.01600
O 	O 	0.05113 0.94854 0.87768 -0.50900
C 	C 	0.08233 0.96679 0.92893 0.30900
O 	O 	0.99394 0.91307 0.35694 -0.46200
Zn	Zn	0.97456 0.94594 0.32406 1.18800
C 	C 	0.02443 0.93396 0.40874 0.27400
C 	C 	0.05735 0.92039 0.43179 -0.09100
C 	C 	0.12385 0.89803 0.46854 -0.00200
C 	C 	0.13496 0.94223 0.49607 -0.02200
C 	C 	0.10192 0.95331 0.47676 -0.00700
C 	C 	0.11485 0.95207 0.94728 -0.11600
C 	C 	0.17793 0.92536 0.98160 0.02900
C 	C 	0.19142 0.97053 0.00938 -0.05900
O 	O 	0.04106 0.94934 0.07810 -0.46100
H 	H 	0.98160 0.94241 0.62298 0.09900
H 	H 	0.03315 0.93670 0.14950 0.09000
O 	O 	0.97077 0.94342 0.53927 -0.44900
C 	C 	0.24812 0.92385 0.00668 -0.08100
H 	H 	0.25957 0.95114 0.99826 0.05600
C 	C 	0.19534 0.90622 0.48244 -0.07300
H 	H 	0.20272 0.93600 0.47762 0.04900
C 	C 	0.25402 0.90411 0.47066 0.00800
C 	C 	0.30059 0.93365 0.51220 -0.02600
C 	C 	0.33127 0.95144 0.50011 0.00400
C 	C 	0.31690 0.93707 0.44684 -0.10100
C 	C 	0.26976 0.90830 0.40515 0.04600
C 	C 	0.25200 0.89458 0.34852 0.00800
C 	C 	0.23467 0.91245 0.27584 -0.03200
C 	C 	0.25190 0.92570 0.32959 -0.03900
C 	C 	0.31820 0.94386 0.56810 0.02800
C 	C 	0.34714 0.93000 0.59379 -0.05400
C 	C 	0.36878 0.94463 0.64849 -0.01800
C 	C 	0.36068 0.97202 0.67749 -0.03900
C 	C 	0.31037 0.97161 0.59746 -0.05200
H 	H 	0.39155 0.93441 0.66832 0.02900
H 	H 	0.23631 0.93681 0.26168 0.03300
H 	H 	0.17516 0.94117 0.59025 0.04100
C 	C 	0.30812 0.91195 0.00879 -0.00800
C 	C 	0.35404 0.93554 0.05236 -0.02000
C 	C 	0.38774 0.94479 0.04327 -0.01300
H 	H 	0.42308 0.96414 0.07700 0.03900
C 	C 	0.37594 0.92954 0.99086 -0.08400
C 	C 	0.36703 0.95078 0.10748 0.02700
C 	C 	0.37766 0.92649 0.13394 -0.05900
C 	C 	0.38573 0.93839 0.18416 -0.01500
H 	H 	0.39352 0.91940 0.20435 -0.01100
H 	H 	0.29792 0.92817 0.87089 0.04300
Zn	Zn	0.43565 0.92091 0.91166 1.17700
C 	C 	0.41234 0.94222 0.98217 0.31900
O 	O 	0.40204 0.93646 0.93492 -0.47800
O 	O 	0.45340 0.95324 0.01936 -0.45600
Zn	Zn	0.37342 0.91897 0.36706 1.17800
C 	C 	0.35198 0.94724 0.43613 0.32000
O 	O 	0.34133 0.94023 0.38848 -0.47600
O 	O 	0.39098 0.95331 0.47080 -0.48200
C 	C 	0.56632 0.92449 0.30590 -0.02600
C 	C 	0.58266 0.89825 0.32221 -0.03500
C 	C 	0.62655 0.91887 0.36772 -0.02200
H 	H 	0.53255 0.90847 0.27016 0.02600
O 	O 	0.55113 0.94854 0.87768 -0.50100
Zn	Zn	0.52079 0.94348 0.00263 1.18500
O 	O 	0.49273 0.94348 0.93106 -0.80800
O 	O 	0.54106 0.94934 0.07810 -0.45300
C 	C 	0.58233 0.96679 0.92893 0.31300
O 	O 	0.49394 0.91307 0.35694 -0.49200
Zn	Zn	0.45037 0.93276 0.46304 1.19200
O 	O 	0.43073 0.93212 0.39165 -0.80100
O 	O 	0.47077 0.94342 0.53927 -0.45400
Zn	Zn	0.47456 0.94594 0.32406 1.18600
C 	C 	0.52443 0.93396 0.40874 0.31600
H 	H 	0.48160 0.94241 0.62298 0.09400
H 	H 	0.53315 0.93670 0.14950 0.09300
C 	C 	0.55735 0.92039 0.43179 -0.11100
C 	C 	0.61485 0.95207 0.94728 -0.12200
C 	C 	0.74812 0.92385 0.00668 -0.08000
H 	H 	0.75957 0.95114 0.99826 0.05600
C 	C 	0.69534 0.90622 0.48244 -0.07100
H 	H 	0.70272 0.93600 0.47762 0.04800
C 	C 	0.75402 0.90411 0.47066 0.00800
C 	C 	0.75200 0.89458 0.34852 0.00800
C 	C 	0.73467 0.91245 0.27584 -0.03200
C 	C 	0.62384 0.89803 0.46854 0.00800
C 	C 	0.63496 0.94223 0.49607 -0.02900
C 	C 	0.60192 0.95331 0.47676 0.00500
H 	H 	0.67516 0.94117 0.59025 0.04300
C 	C 	0.80812 0.91195 0.00879 -0.00800
H 	H 	0.79792 0.92817 0.87089 0.04300
C 	C 	0.67793 0.92536 0.98160 0.03300
C 	C 	0.69142 0.97053 0.00938 -0.06200
Zn	Zn	0.93564 0.92091 0.91166 1.17800
C 	C 	0.91234 0.94222 0.98217 0.31500
O 	O 	0.90204 0.93646 0.93492 -0.47600
O 	O 	0.95340 0.95324 0.01936 -0.44300
Zn	Zn	0.87342 0.91897 0.36706 1.17700
C 	C 	0.85199 0.94724 0.43613 0.32000
O 	O 	0.84133 0.94023 0.38848 -0.47600
O 	O 	0.89098 0.95331 0.47080 -0.48200
C 	C 	0.80059 0.93365 0.51220 -0.02600
C 	C 	0.83127 0.95144 0.50011 0.00400
C 	C 	0.81690 0.93707 0.44684 -0.10200
C 	C 	0.76976 0.90830 0.40515 0.04600
C 	C 	0.75190 0.92570 0.32959 -0.03800
C 	C 	0.81820 0.94386 0.56810 0.02800
C 	C 	0.84714 0.93000 0.59379 -0.05400
C 	C 	0.86878 0.94463 0.64849 -0.01700
C 	C 	0.86068 0.97202 0.67749 -0.03800
C 	C 	0.81037 0.97161 0.59746 -0.05200
H 	H 	0.89155 0.93441 0.66832 0.03000
H 	H 	0.73631 0.93681 0.26168 0.03300
C 	C 	0.85404 0.93554 0.05236 -0.01900
C 	C 	0.88774 0.94479 0.04327 -0.01200
H 	H 	0.92308 0.96414 0.07700 0.04400
C 	C 	0.87594 0.92954 0.99086 -0.08300
C 	C 	0.86703 0.95078 0.10748 0.02900
C 	C 	0.87766 0.92649 0.13394 -0.05700
C 	C 	0.88574 0.93839 0.18416 -0.01300
H 	H 	0.89352 0.91940 0.20435 -0.01000
Zn	Zn	0.02079 0.94348 0.00263 1.17700
O 	O 	0.99273 0.94348 0.93106 -0.78900
Zn	Zn	0.95037 0.93276 0.46304 1.19400
O 	O 	0.93074 0.93212 0.39165 -0.79800
H 	H 	0.38958 0.98376 0.24695 0.00800
C 	C 	0.25494 0.00776 0.10568 -0.05700
C 	C 	0.75494 0.00776 0.10568 -0.05800
H 	H 	0.88958 0.98376 0.24695 0.00900
C 	C 	0.09389 0.97144 0.33531 -0.04400
C 	C 	0.59389 0.97144 0.33531 -0.04200
H 	H 	0.11391 0.98234 0.84725 0.02300
H 	H 	0.36696 0.97469 0.53234 0.03300
H 	H 	0.61391 0.98234 0.84725 0.02700
H 	H 	0.86696 0.97469 0.53234 0.03300
Zn	Zn	0.97612 0.99306 0.42039 1.22300
Zn	Zn	0.47612 0.99306 0.42039 1.21700
H 	H 	0.11092 0.98754 0.49707 0.02900
H 	H 	0.61092 0.98754 0.49707 0.02700
C 	C 	0.19614 0.97117 0.59144 -0.06300
C 	C 	0.69614 0.97117 0.59144 -0.06400
C 	C 	0.15364 0.96575 0.39816 -0.04300
H 	H 	0.18796 0.98154 0.43277 0.03700
O 	O 	0.08695 0.00053 0.96357 -0.45900
Zn	Zn	0.01519 0.97294 0.85283 1.17500
O 	O 	0.99601 0.96716 0.28365 -0.44400
O 	O 	0.03103 0.97170 0.43884 -0.46600
C 	C 	0.15968 0.98341 0.99233 0.02100
C 	C 	0.04677 0.97999 0.11781 0.37800
H 	H 	0.99228 0.96781 0.70817 0.04700
C 	C 	0.02546 0.98585 0.21992 -0.02900
C 	C 	0.04322 0.97045 0.15452 -0.23100
H 	H 	0.01889 0.95433 0.22059 0.03500
C 	C 	0.98163 0.97179 0.62027 -0.22700
O 	O 	0.99740 0.98375 0.79176 -0.46300
C 	C 	0.98939 0.99588 0.70471 -0.03300
H 	H 	0.19356 0.97266 0.84568 0.03400
H 	H 	0.16290 0.98212 0.18710 0.03500
H 	H 	0.17245 0.98090 0.26908 0.03100
C 	C 	0.25809 0.98855 0.90921 -0.02200
C 	C 	0.22959 0.98968 0.86398 -0.04900
H 	H 	0.24407 0.97052 0.92572 0.03000
C 	C 	0.33131 0.98528 0.65196 -0.02400
H 	H 	0.37720 0.98300 0.71977 0.02700
H 	H 	0.28888 0.98330 0.57837 0.04500
H 	H 	0.26660 0.96034 0.35689 0.04300
C 	C 	0.18057 0.97680 0.54583 0.02100
C 	C 	0.38363 0.97473 0.20826 -0.04600
C 	C 	0.36560 0.98762 0.13215 -0.05900
C 	C 	0.23880 0.00493 0.05518 0.03800
H 	H 	0.23343 0.98339 0.11078 0.03800
O 	O 	0.49740 0.98375 0.79176 -0.50400
O 	O 	0.50084 0.00541 0.88968 -0.89500
O 	O 	0.58696 0.00053 0.96357 -0.45800
C 	C 	0.54677 0.97999 0.11781 0.37800
Zn	Zn	0.51519 0.97294 0.85283 1.18200
H 	H 	0.46816 0.99451 0.86925 0.16100
O 	O 	0.49601 0.96716 0.28365 -0.48500
O 	O 	0.46399 0.98930 0.35346 -0.87700
O 	O 	0.53103 0.97170 0.43884 -0.46300
C 	C 	0.47702 0.97602 0.57761 0.37900
H 	H 	0.43325 0.98285 0.32901 0.15700
C 	C 	0.48939 0.99588 0.70471 -0.01500
C 	C 	0.48163 0.97179 0.62027 -0.22600
H 	H 	0.49228 0.96781 0.70817 0.03600
C 	C 	0.52546 0.98585 0.21992 -0.01200
C 	C 	0.54322 0.97045 0.15452 -0.22500
H 	H 	0.51889 0.95433 0.22059 0.03800
H 	H 	0.66290 0.98212 0.18710 0.03500
H 	H 	0.67245 0.98090 0.26908 0.03200
C 	C 	0.65364 0.96575 0.39816 -0.04300
H 	H 	0.68796 0.98154 0.43277 0.03700
C 	C 	0.75809 0.98855 0.90921 -0.02100
C 	C 	0.72959 0.98968 0.86398 -0.04900
H 	H 	0.74407 0.97052 0.92572 0.03000
H 	H 	0.69356 0.97266 0.84568 0.03600
H 	H 	0.78888 0.98330 0.57837 0.04600
C 	C 	0.68057 0.97680 0.54583 0.02500
C 	C 	0.65968 0.98341 0.99233 0.02400
C 	C 	0.73879 0.00493 0.05518 0.03900
H 	H 	0.73343 0.98339 0.11078 0.03800
C 	C 	0.83131 0.98528 0.65196 -0.02300
H 	H 	0.87720 0.98300 0.71977 0.03000
H 	H 	0.76660 0.96034 0.35689 0.04300
C 	C 	0.88363 0.97473 0.20826 -0.04500
C 	C 	0.86560 0.98762 0.13215 -0.05800
O 	O 	0.00084 0.00541 0.88968 -0.92500
O 	O 	0.96399 0.98930 0.35346 -0.86600
H 	H 	0.96816 0.99451 0.86925 0.18500
C 	C 	0.97702 0.97602 0.57761 0.38200
H 	H 	0.93325 0.98285 0.32901 0.15600
