data_crystal

_cell_length_a 29.65029
_cell_length_b 32.47885
_cell_length_c 15.76186
_cell_angle_alpha 98.67458
_cell_angle_beta  81.40732
_cell_angle_gamma 113.94387

_symmetry_space_group_name_	'P 1'
_symmetry_space_group_name_H-M	'P 1'

loop_
_symmetry_equiv_pos_as_xyz
  x,y,z

loop_
_atom_site_label
_atom_site_type_symbol
_atom_site_fract_x
_atom_site_fract_y
_atom_site_fract_z
_atom_site_charge
Ni	Ni	0.18961 0.32347 0.82778 1.10300
O 	O 	0.20344 0.36681 0.73869 -0.58100
Ni	Ni	0.17064 0.32359 0.64242 1.10300
O 	O 	0.21650 0.37808 0.91583 -0.36000
O 	O 	0.28769 0.41240 0.82718 -0.40300
O 	O 	0.11827 0.32003 0.85137 -0.38600
Ni	Ni	0.27109 0.40482 0.69917 1.06900
O 	O 	0.16694 0.21467 0.82734 -0.39300
O 	O 	0.29317 0.35106 0.65080 -0.39200
O 	O 	0.17112 0.37095 0.57027 -0.36700
O 	O 	0.17698 0.28085 0.71942 -0.69900
O 	O 	0.17373 0.27942 0.91741 -0.37200
O 	O 	0.12791 0.27000 0.56556 -0.38300
O 	O 	0.07288 0.23091 0.67296 -0.39300
Ni	Ni	0.12375 0.22363 0.74488 1.07300
H 	H 	0.22740 0.35350 0.74050 -0.03900
H 	H 	0.20702 0.27443 0.70331 0.15400
C 	C 	0.26818 0.32025 0.59080 0.27700
O 	O 	0.08858 0.24368 0.85268 -0.39300
C 	C 	0.25494 0.41493 0.89355 0.26900
C 	C 	0.21221 0.40838 0.56478 0.27600
C 	C 	0.08068 0.28096 0.86214 0.29700
C 	C 	0.08256 0.24543 0.59492 0.27100
C 	C 	0.18283 0.24264 0.89821 0.27800
O 	O 	0.23102 0.32385 0.56282 -0.36900
O 	O 	0.25502 0.40867 0.58019 -0.40100
Ni	Ni	0.34119 0.15716 0.36861 1.09900
O 	O 	0.36223 0.19964 0.27923 -0.71200
Ni	Ni	0.32765 0.16587 0.17763 1.10200
O 	O 	0.37984 0.20939 0.45457 -0.37600
O 	O 	0.42156 0.27268 0.37804 -0.37300
O 	O 	0.28410 0.17526 0.41499 -0.38100
Ni	Ni	0.36833 0.26016 0.29091 1.07700
O 	O 	0.23662 0.08966 0.41269 -0.40800
O 	O 	0.41818 0.26594 0.18111 -0.36700
O 	O 	0.33249 0.21239 0.10182 -0.37800
O 	O 	0.31581 0.11797 0.25961 -0.70100
O 	O 	0.31391 0.10996 0.45437 -0.38400
O 	O 	0.30394 0.11818 0.07682 -0.37500
O 	O 	0.22956 0.08420 0.15343 -0.41800
Ni	Ni	0.24238 0.09381 0.28325 1.05600
H 	H 	0.39680 0.20204 0.27353 0.15200
H 	H 	0.32997 0.09514 0.23772 0.16600
C 	C 	0.42940 0.23343 0.12982 0.27300
O 	O 	0.23833 0.15701 0.30252 -0.41600
C 	C 	0.42134 0.24287 0.42893 0.26000
C 	C 	0.31270 0.24096 0.13343 0.29200
C 	C 	0.26010 0.18652 0.36642 0.24800
C 	C 	0.26344 0.08217 0.09025 0.28300
C 	C 	0.26804 0.08013 0.44881 0.28700
O 	O 	0.40127 0.18862 0.13156 -0.35900
O 	O 	0.31308 0.25478 0.21708 -0.41200
C 	C 	0.96744 0.24820 0.05790 -0.05900
C 	C 	0.01030 0.28842 0.06857 0.01500
C 	C 	0.04174 0.30617 0.99586 -0.01100
H 	H 	0.07516 0.33651 0.00426 0.04400
C 	C 	0.03578 0.28031 0.91564 -0.07900
C 	C 	0.99077 0.24222 0.90407 0.02500
C 	C 	0.95664 0.22722 0.97519 -0.02100
H 	H 	0.92216 0.19812 0.96632 0.05300
C 	C 	0.98223 0.21369 0.82076 0.01500
C 	C 	0.96316 0.22544 0.75622 -0.04400
C 	C 	0.94425 0.19386 0.68626 -0.02000
C 	C 	0.94606 0.15116 0.67874 -0.03600
C 	C 	0.96674 0.13985 0.74114 -0.02700
C 	C 	0.98442 0.17080 0.81240 -0.05400
C 	C 	0.02531 0.30947 0.15564 0.02000
C 	C 	0.03440 0.35538 0.17957 -0.05200
C 	C 	0.05409 0.37655 0.25752 -0.02300
C 	C 	0.06469 0.35206 0.31188 -0.03900
C 	C 	0.05454 0.30610 0.28945 -0.01900
C 	C 	0.03461 0.28468 0.21184 -0.05000
H 	H 	0.06175 0.41209 0.27524 0.02500
H 	H 	0.08104 0.36876 0.37117 0.03700
H 	H 	0.06307 0.28732 0.33134 0.03400
H 	H 	0.02782 0.24932 0.19413 0.04100
H 	H 	0.02714 0.37480 0.13706 0.03900
H 	H 	0.96145 0.25833 0.76170 0.03900
H 	H 	0.92817 0.20246 0.63788 0.03800
H 	H 	0.99854 0.16109 0.86232 0.04200
H 	H 	0.96823 0.10678 0.73515 0.02200
H 	H 	0.93142 0.12684 0.62453 0.03200
C 	C 	0.04159 0.24497 0.55133 -0.07000
C 	C 	0.02669 0.21584 0.47567 0.01600
C 	C 	0.98942 0.21763 0.43261 -0.02600
H 	H 	0.97680 0.19412 0.37615 0.01700
C 	C 	0.96761 0.24891 0.46296 -0.07400
C 	C 	0.98458 0.27981 0.53579 0.02200
C 	C 	0.02194 0.27806 0.57875 -0.02600
H 	H 	0.03513 0.30199 0.63443 0.03000
C 	C 	0.96223 0.31296 0.56939 0.01300
C 	C 	0.92506 0.30381 0.63877 -0.04800
C 	C 	0.90343 0.33493 0.66962 -0.02200
C 	C 	0.91901 0.37536 0.63181 -0.03300
C 	C 	0.95625 0.38473 0.56305 -0.02800
C 	C 	0.97791 0.35365 0.53187 -0.04300
C 	C 	0.05137 0.18474 0.43917 0.01000
C 	C 	0.04268 0.14639 0.48028 -0.05200
C 	C 	0.06910 0.11908 0.44960 -0.03000
C 	C 	0.10408 0.12980 0.37772 -0.03300
C 	C 	0.11241 0.16763 0.33597 -0.02500
C 	C 	0.08585 0.19490 0.36610 -0.04600
H 	H 	0.06278 0.08983 0.48199 0.02600
H 	H 	0.12498 0.10898 0.35477 0.02700
H 	H 	0.14000 0.17623 0.28112 0.03800
H 	H 	0.09295 0.22449 0.33408 0.03800
H 	H 	0.01621 0.13826 0.53670 0.03700
H 	H 	0.91231 0.27235 0.66762 0.03900
H 	H 	0.87441 0.32759 0.72255 0.03400
H 	H 	0.00675 0.36113 0.47873 0.04100
H 	H 	0.96833 0.41608 0.53394 0.02800
H 	H 	0.90221 0.39941 0.65574 0.02900
C 	C 	0.21388 0.44558 0.52082 -0.07400
C 	C 	0.19379 0.47640 0.56479 0.00600
C 	C 	0.21273 0.52090 0.54209 -0.01700
H 	H 	0.19720 0.54461 0.57560 0.03800
C 	C 	0.25233 0.53514 0.47756 -0.09300
C 	C 	0.27071 0.50363 0.43115 0.01300
C 	C 	0.24985 0.45880 0.45068 -0.02500
H 	H 	0.26664 0.43577 0.41922 0.04800
C 	C 	0.31301 0.51744 0.36374 -0.00300
C 	C 	0.36109 0.54416 0.38684 -0.05300
C 	C 	0.40121 0.55600 0.32326 -0.03700
C 	C 	0.39377 0.54006 0.23687 -0.04600
C 	C 	0.34623 0.51215 0.21394 -0.03200
C 	C 	0.30590 0.50066 0.27719 -0.06600
C 	C 	0.15696 0.46374 0.64071 0.00800
C 	C 	0.17166 0.47997 0.72415 -0.05700
C 	C 	0.13833 0.46416 0.79611 -0.02400
C 	C 	0.09020 0.43235 0.78515 -0.03800
C 	C 	0.07517 0.41657 0.70222 -0.02800
C 	C 	0.10837 0.43230 0.63002 -0.04500
H 	H 	0.14996 0.47621 0.86033 0.03300
H 	H 	0.06458 0.41986 0.84089 0.03500
H 	H 	0.03796 0.39184 0.69389 0.03300
H 	H 	0.09677 0.41931 0.56593 0.04300
H 	H 	0.20917 0.50400 0.73310 0.03200
H 	H 	0.36729 0.55579 0.45387 0.04300
H 	H 	0.43809 0.57734 0.34100 0.02800
H 	H 	0.26932 0.47845 0.25924 0.03000
H 	H 	0.34061 0.49972 0.14711 0.03100
H 	H 	0.42486 0.54926 0.18773 0.03200
C 	C 	0.25766 0.53874 0.03863 -0.08800
C 	C 	0.26952 0.53685 0.94830 0.02600
C 	C 	0.27229 0.49727 0.90211 -0.02800
H 	H 	0.28049 0.49568 0.83257 0.00900
C 	C 	0.26157 0.45891 0.94482 -0.07500
C 	C 	0.24859 0.46075 0.03527 0.01800
C 	C 	0.24617 0.50036 0.08100 -0.02200
H 	H 	0.23613 0.50152 0.15007 0.00800
C 	C 	0.23467 0.42034 0.08125 0.01500
C 	C 	0.26954 0.40140 0.08200 -0.04300
C 	C 	0.25356 0.35603 0.09606 -0.01900
C 	C 	0.20315 0.33010 0.11396 -0.02600
C 	C 	0.16868 0.34981 0.12025 -0.01800
C 	C 	0.18436 0.39509 0.10536 -0.04000
C 	C 	0.27742 0.57585 0.90202 0.01100
C 	C 	0.32588 0.60488 0.87529 -0.03700
C 	C 	0.33521 0.64834 0.85578 -0.02100
C 	C 	0.29634 0.66276 0.86181 -0.02700
C 	C 	0.24774 0.63311 0.88362 -0.02000
C 	C 	0.23806 0.58940 0.90196 -0.04200
H 	H 	0.37261 0.67117 0.83788 0.03800
H 	H 	0.30357 0.69619 0.84586 0.03900
H 	H 	0.21758 0.64384 0.88529 0.03800
H 	H 	0.20039 0.56703 0.92123 0.04100
H 	H 	0.35657 0.59480 0.87480 0.04100
H 	H 	0.30856 0.42079 0.06509 0.04000
H 	H 	0.28026 0.34127 0.09490 0.03800
H 	H 	0.15709 0.40944 0.10578 0.04000
H 	H 	0.12978 0.32969 0.13425 0.04000
H 	H 	0.19107 0.29528 0.12625 0.04400
C 	C 	0.21600 0.23587 0.95178 -0.07400
C 	C 	0.19623 0.21470 0.02895 0.02000
C 	C 	0.22782 0.22051 0.09253 -0.02300
H 	H 	0.21282 0.20288 0.15003 0.04000
C 	C 	0.27892 0.24717 0.08063 -0.07400
C 	C 	0.29863 0.26872 0.00390 0.01800
C 	C 	0.26713 0.26251 0.94001 -0.02300
H 	H 	0.28200 0.28057 0.88300 0.02400
C 	C 	0.35227 0.29901 0.99103 0.01700
C 	C 	0.37528 0.33171 0.05767 -0.04700
C 	C 	0.42596 0.35862 0.04684 -0.02000
C 	C 	0.45371 0.35439 0.96874 -0.03500
C 	C 	0.43088 0.32326 0.90119 -0.02000
C 	C 	0.38054 0.29508 0.91243 -0.04600
C 	C 	0.14212 0.18772 0.04532 0.01400
C 	C 	0.11509 0.19851 0.12022 -0.04600
C 	C 	0.06408 0.17345 0.13486 -0.02100
C 	C 	0.03966 0.13795 0.07469 -0.03600
C 	C 	0.06633 0.12680 0.00048 -0.02600
C 	C 	0.11748 0.15119 0.98615 -0.04200
H 	H 	0.04355 0.18130 0.19324 0.02800
H 	H 	0.00011 0.11885 0.08588 0.03300
H 	H 	0.04738 0.09914 0.95413 0.02800
H 	H 	0.13777 0.14201 0.92882 0.04200
H 	H 	0.13360 0.22581 0.16750 0.03900
H 	H 	0.35415 0.33577 0.11824 0.03900
H 	H 	0.44368 0.38295 0.09896 0.02800
H 	H 	0.36357 0.27062 0.85997 0.03800
H 	H 	0.45211 0.32131 0.83982 0.03100
H 	H 	0.49288 0.37548 0.96036 0.03500
C 	C 	0.28278 0.28358 0.54786 -0.07300
C 	C 	0.24679 0.23917 0.55845 0.00800
C 	C 	0.21868 0.21551 0.48846 -0.01200
H 	H 	0.18733 0.18379 0.49783 0.03800
C 	C 	0.24295 0.22249 0.40541 -0.05600
C 	C 	0.27603 0.26772 0.39531 -0.03900
C 	C 	0.30571 0.29061 0.46370 -0.02400
H 	H 	0.33716 0.32216 0.45346 0.02000
C 	C 	0.26071 0.29578 0.34863 0.03700
C 	C 	0.21062 0.29036 0.35731 -0.04500
C 	C 	0.19773 0.32375 0.33435 -0.01100
C 	C 	0.23439 0.36273 0.30274 -0.03600
C 	C 	0.28390 0.36767 0.29060 -0.01800
C 	C 	0.29707 0.33419 0.31244 -0.04700
C 	C 	0.25251 0.21212 0.62062 0.00100
C 	C 	0.20994 0.17861 0.65794 -0.03000
C 	C 	0.21297 0.14069 0.68434 -0.02800
C 	C 	0.25851 0.13649 0.67549 -0.02700
C 	C 	0.30170 0.17194 0.64743 -0.01700
C 	C 	0.29892 0.21010 0.62161 -0.03500
H 	H 	0.17975 0.11390 0.70915 0.02900
H 	H 	0.26050 0.10620 0.69232 0.03800
H 	H 	0.33715 0.16925 0.64322 0.03900
H 	H 	0.33221 0.23600 0.59492 0.05600
H 	H 	0.17395 0.18000 0.65921 -0.02300
H 	H 	0.18221 0.26197 0.38738 0.05900
H 	H 	0.15937 0.31990 0.34317 0.03600
H 	H 	0.33575 0.33899 0.30493 0.01300
H 	H 	0.31217 0.39771 0.26494 0.03100
H 	H 	0.22438 0.38896 0.28662 0.03800
Ni	Ni	0.18961 0.82347 0.82778 1.10200
O 	O 	0.20344 0.86681 0.73869 -0.58200
Ni	Ni	0.17064 0.82359 0.64242 1.10200
O 	O 	0.21650 0.87808 0.91583 -0.36000
O 	O 	0.28769 0.91240 0.82718 -0.40400
O 	O 	0.11827 0.82003 0.85137 -0.38700
Ni	Ni	0.27109 0.90482 0.69917 1.06800
O 	O 	0.16694 0.71467 0.82734 -0.39400
O 	O 	0.29317 0.85106 0.65080 -0.39400
O 	O 	0.17112 0.87096 0.57027 -0.36800
O 	O 	0.17698 0.78085 0.71942 -0.70000
O 	O 	0.17373 0.77942 0.91741 -0.37300
O 	O 	0.12791 0.77000 0.56556 -0.38400
O 	O 	0.07288 0.73091 0.67296 -0.39400
Ni	Ni	0.12375 0.72363 0.74488 1.07200
H 	H 	0.22740 0.85350 0.74050 -0.04000
H 	H 	0.20702 0.77443 0.70331 0.15300
C 	C 	0.26818 0.82025 0.59080 0.27600
O 	O 	0.08858 0.74368 0.85268 -0.39300
C 	C 	0.25494 0.91493 0.89355 0.26900
C 	C 	0.21220 0.90838 0.56478 0.27500
C 	C 	0.08068 0.78096 0.86214 0.29700
C 	C 	0.08256 0.74543 0.59492 0.27100
C 	C 	0.18283 0.74264 0.89821 0.27800
O 	O 	0.23102 0.82385 0.56282 -0.36900
O 	O 	0.25502 0.90867 0.58019 -0.40100
Ni	Ni	0.34119 0.65716 0.36861 1.09900
O 	O 	0.36223 0.69964 0.27923 -0.71200
Ni	Ni	0.32766 0.66587 0.17763 1.10200
O 	O 	0.37984 0.70939 0.45457 -0.37600
O 	O 	0.42156 0.77268 0.37804 -0.37300
O 	O 	0.28410 0.67526 0.41499 -0.38100
Ni	Ni	0.36833 0.76016 0.29091 1.07700
O 	O 	0.23662 0.58966 0.41269 -0.40800
O 	O 	0.41818 0.76594 0.18111 -0.36700
O 	O 	0.33249 0.71240 0.10182 -0.37800
O 	O 	0.31581 0.61797 0.25961 -0.70100
O 	O 	0.31391 0.60996 0.45437 -0.38400
O 	O 	0.30394 0.61819 0.07682 -0.37500
O 	O 	0.22956 0.58420 0.15343 -0.41800
Ni	Ni	0.24238 0.59381 0.28325 1.05600
H 	H 	0.39680 0.70204 0.27353 0.15200
H 	H 	0.32997 0.59514 0.23772 0.16600
C 	C 	0.42940 0.73343 0.12982 0.27300
O 	O 	0.23833 0.65701 0.30252 -0.41600
C 	C 	0.42134 0.74287 0.42893 0.26000
C 	C 	0.31270 0.74096 0.13343 0.29200
C 	C 	0.26010 0.68652 0.36642 0.24800
C 	C 	0.26344 0.58217 0.09025 0.28300
C 	C 	0.26804 0.58013 0.44881 0.28600
O 	O 	0.40127 0.68862 0.13156 -0.35900
O 	O 	0.31308 0.75478 0.21708 -0.41200
C 	C 	0.96744 0.74820 0.05790 -0.05900
C 	C 	0.01030 0.78842 0.06857 0.01400
C 	C 	0.04174 0.80617 0.99586 -0.01100
H 	H 	0.07516 0.83651 0.00426 0.04400
C 	C 	0.03578 0.78030 0.91564 -0.07900
C 	C 	0.99077 0.74222 0.90407 0.02500
C 	C 	0.95664 0.72722 0.97519 -0.02000
H 	H 	0.92216 0.69812 0.96632 0.05300
C 	C 	0.98223 0.71369 0.82076 0.01500
C 	C 	0.96316 0.72544 0.75622 -0.04400
C 	C 	0.94425 0.69386 0.68626 -0.02000
C 	C 	0.94606 0.65116 0.67874 -0.03600
C 	C 	0.96674 0.63985 0.74114 -0.02700
C 	C 	0.98442 0.67080 0.81240 -0.05400
C 	C 	0.02531 0.80947 0.15564 0.02000
C 	C 	0.03440 0.85538 0.17957 -0.05200
C 	C 	0.05409 0.87655 0.25752 -0.02300
C 	C 	0.06469 0.85206 0.31188 -0.03900
C 	C 	0.05454 0.80610 0.28945 -0.01900
C 	C 	0.03461 0.78468 0.21184 -0.05000
H 	H 	0.06175 0.91209 0.27524 0.02500
H 	H 	0.08104 0.86877 0.37117 0.03700
H 	H 	0.06307 0.78732 0.33134 0.03400
H 	H 	0.02782 0.74932 0.19413 0.04100
H 	H 	0.02714 0.87480 0.13706 0.03900
H 	H 	0.96145 0.75833 0.76170 0.03900
H 	H 	0.92817 0.70246 0.63788 0.03800
H 	H 	0.99854 0.66109 0.86232 0.04200
H 	H 	0.96823 0.60678 0.73515 0.02200
H 	H 	0.93142 0.62684 0.62453 0.03200
C 	C 	0.04159 0.74497 0.55133 -0.07000
C 	C 	0.02669 0.71584 0.47567 0.01600
C 	C 	0.98942 0.71762 0.43261 -0.02600
H 	H 	0.97680 0.69412 0.37615 0.01700
C 	C 	0.96761 0.74891 0.46296 -0.07400
C 	C 	0.98458 0.77981 0.53579 0.02200
C 	C 	0.02194 0.77806 0.57875 -0.02600
H 	H 	0.03513 0.80199 0.63443 0.03000
C 	C 	0.96223 0.81296 0.56939 0.01300
C 	C 	0.92506 0.80381 0.63877 -0.04800
C 	C 	0.90343 0.83493 0.66962 -0.02200
C 	C 	0.91901 0.87536 0.63181 -0.03300
C 	C 	0.95625 0.88473 0.56305 -0.02800
C 	C 	0.97791 0.85365 0.53187 -0.04300
C 	C 	0.05137 0.68474 0.43917 0.01000
C 	C 	0.04268 0.64639 0.48028 -0.05200
C 	C 	0.06910 0.61908 0.44960 -0.03000
C 	C 	0.10408 0.62980 0.37772 -0.03300
C 	C 	0.11241 0.66763 0.33597 -0.02500
C 	C 	0.08585 0.69490 0.36610 -0.04600
H 	H 	0.06278 0.58983 0.48199 0.02600
H 	H 	0.12498 0.60898 0.35477 0.02600
H 	H 	0.14000 0.67623 0.28112 0.03800
H 	H 	0.09295 0.72449 0.33408 0.03800
H 	H 	0.01621 0.63826 0.53670 0.03700
H 	H 	0.91231 0.77235 0.66762 0.03900
H 	H 	0.87441 0.82759 0.72255 0.03400
H 	H 	0.00675 0.86113 0.47873 0.04100
H 	H 	0.96833 0.91608 0.53394 0.02800
H 	H 	0.90221 0.89941 0.65574 0.02900
C 	C 	0.21388 0.94558 0.52082 -0.07300
C 	C 	0.19379 0.97640 0.56479 0.00400
C 	C 	0.21272 0.02090 0.54209 -0.01400
H 	H 	0.19720 0.04461 0.57560 0.03800
C 	C 	0.25233 0.03514 0.47756 -0.09500
C 	C 	0.27071 0.00363 0.43115 0.01500
C 	C 	0.24985 0.95880 0.45068 -0.02700
H 	H 	0.26664 0.93577 0.41922 0.04900
C 	C 	0.31301 0.01744 0.36374 -0.00400
C 	C 	0.36109 0.04416 0.38684 -0.05300
C 	C 	0.40121 0.05600 0.32326 -0.03700
C 	C 	0.39377 0.04006 0.23687 -0.04600
C 	C 	0.34623 0.01215 0.21394 -0.03100
C 	C 	0.30590 0.00066 0.27719 -0.06400
C 	C 	0.15696 0.96374 0.64071 0.00900
C 	C 	0.17166 0.97997 0.72415 -0.05900
C 	C 	0.13833 0.96416 0.79611 -0.02400
C 	C 	0.09020 0.93236 0.78515 -0.03800
C 	C 	0.07517 0.91657 0.70222 -0.02700
C 	C 	0.10837 0.93230 0.63002 -0.04600
H 	H 	0.14996 0.97621 0.86033 0.03200
H 	H 	0.06458 0.91986 0.84089 0.03500
H 	H 	0.03796 0.89184 0.69389 0.03300
H 	H 	0.09677 0.91931 0.56593 0.04300
H 	H 	0.20917 0.00400 0.73310 0.03300
H 	H 	0.36729 0.05579 0.45387 0.04300
H 	H 	0.43809 0.07734 0.34100 0.02800
H 	H 	0.26932 0.97845 0.25924 0.02900
H 	H 	0.34061 0.99972 0.14711 0.03000
H 	H 	0.42486 0.04926 0.18773 0.03200
C 	C 	0.25766 0.03874 0.03863 -0.08800
C 	C 	0.26952 0.03685 0.94830 0.02800
C 	C 	0.27229 0.99727 0.90211 -0.03000
H 	H 	0.28049 0.99568 0.83257 0.00900
C 	C 	0.26157 0.95891 0.94482 -0.07400
C 	C 	0.24859 0.96075 0.03527 0.01500
C 	C 	0.24617 0.00036 0.08100 -0.02000
H 	H 	0.23613 0.00152 0.15007 0.00800
C 	C 	0.23467 0.92034 0.08125 0.01600
C 	C 	0.26954 0.90140 0.08200 -0.04300
C 	C 	0.25356 0.85604 0.09606 -0.01900
C 	C 	0.20315 0.83010 0.11396 -0.02600
C 	C 	0.16868 0.84981 0.12025 -0.01800
C 	C 	0.18436 0.89509 0.10536 -0.04000
C 	C 	0.27742 0.07584 0.90202 0.01000
C 	C 	0.32588 0.10487 0.87529 -0.03700
C 	C 	0.33521 0.14835 0.85578 -0.02100
C 	C 	0.29634 0.16276 0.86181 -0.02700
C 	C 	0.24774 0.13311 0.88362 -0.02000
C 	C 	0.23806 0.08940 0.90196 -0.04100
H 	H 	0.37261 0.17117 0.83788 0.03800
H 	H 	0.30357 0.19619 0.84586 0.03900
H 	H 	0.21758 0.14385 0.88529 0.03800
H 	H 	0.20039 0.06703 0.92123 0.04100
H 	H 	0.35657 0.09480 0.87480 0.04100
H 	H 	0.30856 0.92079 0.06509 0.04000
H 	H 	0.28026 0.84127 0.09490 0.03800
H 	H 	0.15709 0.90944 0.10578 0.04000
H 	H 	0.12978 0.82969 0.13425 0.04000
H 	H 	0.19107 0.79528 0.12625 0.04400
C 	C 	0.21600 0.73588 0.95178 -0.07400
C 	C 	0.19623 0.71470 0.02895 0.02000
C 	C 	0.22782 0.72052 0.09253 -0.02300
H 	H 	0.21281 0.70288 0.15003 0.04000
C 	C 	0.27891 0.74717 0.08063 -0.07400
C 	C 	0.29863 0.76872 0.00390 0.01700
C 	C 	0.26713 0.76251 0.94001 -0.02200
H 	H 	0.28200 0.78057 0.88300 0.02400
C 	C 	0.35227 0.79901 0.99103 0.01800
C 	C 	0.37528 0.83171 0.05767 -0.04700
C 	C 	0.42596 0.85862 0.04684 -0.02000
C 	C 	0.45371 0.85439 0.96874 -0.03400
C 	C 	0.43088 0.82326 0.90119 -0.02000
C 	C 	0.38054 0.79508 0.91243 -0.04600
C 	C 	0.14212 0.68772 0.04532 0.01300
C 	C 	0.11509 0.69851 0.12022 -0.04600
C 	C 	0.06408 0.67345 0.13486 -0.02100
C 	C 	0.03966 0.63795 0.07469 -0.03500
C 	C 	0.06633 0.62680 0.00048 -0.02700
C 	C 	0.11748 0.65119 0.98615 -0.04100
H 	H 	0.04355 0.68130 0.19324 0.02800
H 	H 	0.00011 0.61885 0.08588 0.03300
H 	H 	0.04738 0.59914 0.95413 0.02800
H 	H 	0.13777 0.64201 0.92882 0.04200
H 	H 	0.13360 0.72581 0.16750 0.03900
H 	H 	0.35415 0.83577 0.11824 0.03900
H 	H 	0.44368 0.88295 0.09896 0.02800
H 	H 	0.36356 0.77062 0.85997 0.03800
H 	H 	0.45211 0.82131 0.83982 0.03100
H 	H 	0.49288 0.87548 0.96036 0.03500
C 	C 	0.28278 0.78358 0.54786 -0.07300
C 	C 	0.24679 0.73917 0.55845 0.00800
C 	C 	0.21868 0.71551 0.48846 -0.01200
H 	H 	0.18733 0.68379 0.49783 0.03800
C 	C 	0.24295 0.72249 0.40541 -0.05600
C 	C 	0.27603 0.76772 0.39531 -0.03900
C 	C 	0.30571 0.79061 0.46370 -0.02400
H 	H 	0.33716 0.82216 0.45346 0.02000
C 	C 	0.26071 0.79578 0.34863 0.03700
C 	C 	0.21062 0.79036 0.35731 -0.04500
C 	C 	0.19773 0.82375 0.33435 -0.01100
C 	C 	0.23439 0.86273 0.30274 -0.03600
C 	C 	0.28390 0.86767 0.29060 -0.01800
C 	C 	0.29707 0.83418 0.31244 -0.04700
C 	C 	0.25251 0.71212 0.62062 0.00100
C 	C 	0.20994 0.67861 0.65794 -0.03000
C 	C 	0.21297 0.64069 0.68434 -0.02800
C 	C 	0.25851 0.63649 0.67549 -0.02700
C 	C 	0.30170 0.67195 0.64743 -0.01700
C 	C 	0.29892 0.71010 0.62161 -0.03500
H 	H 	0.17975 0.61390 0.70915 0.02900
H 	H 	0.26050 0.60620 0.69232 0.03700
H 	H 	0.33715 0.66925 0.64322 0.03900
H 	H 	0.33221 0.73600 0.59492 0.05600
H 	H 	0.17395 0.68000 0.65921 -0.02300
H 	H 	0.18221 0.76197 0.38738 0.05900
H 	H 	0.15938 0.81990 0.34317 0.03600
H 	H 	0.33575 0.83899 0.30493 0.01300
H 	H 	0.31217 0.89771 0.26494 0.03100
H 	H 	0.22438 0.88896 0.28662 0.03800
Ni	Ni	0.68961 0.32347 0.82778 1.10200
O 	O 	0.70344 0.36681 0.73869 -0.58200
Ni	Ni	0.67064 0.32359 0.64242 1.10200
O 	O 	0.71650 0.37808 0.91583 -0.36100
O 	O 	0.78769 0.41240 0.82718 -0.40400
O 	O 	0.61827 0.32003 0.85137 -0.38700
Ni	Ni	0.77109 0.40482 0.69917 1.06800
O 	O 	0.66694 0.21467 0.82734 -0.39400
O 	O 	0.79317 0.35106 0.65080 -0.39300
O 	O 	0.67112 0.37095 0.57027 -0.36800
O 	O 	0.67698 0.28085 0.71942 -0.70000
O 	O 	0.67373 0.27942 0.91741 -0.37300
O 	O 	0.62791 0.27000 0.56556 -0.38400
O 	O 	0.57288 0.23091 0.67296 -0.39400
Ni	Ni	0.62375 0.22363 0.74488 1.07200
H 	H 	0.72740 0.35350 0.74050 -0.04000
H 	H 	0.70702 0.27443 0.70331 0.15300
C 	C 	0.76818 0.32025 0.59080 0.27600
O 	O 	0.58858 0.24368 0.85268 -0.39200
C 	C 	0.75494 0.41493 0.89355 0.26900
C 	C 	0.71220 0.40838 0.56478 0.27600
C 	C 	0.58067 0.28096 0.86214 0.29600
C 	C 	0.58256 0.24543 0.59492 0.27100
C 	C 	0.68283 0.24264 0.89821 0.27800
O 	O 	0.73102 0.32385 0.56282 -0.36900
O 	O 	0.75502 0.40867 0.58019 -0.40100
Ni	Ni	0.84119 0.15716 0.36861 1.09900
O 	O 	0.86223 0.19964 0.27923 -0.71200
Ni	Ni	0.82766 0.16587 0.17763 1.10200
O 	O 	0.87984 0.20939 0.45457 -0.37600
O 	O 	0.92156 0.27268 0.37804 -0.37300
O 	O 	0.78410 0.17526 0.41499 -0.38100
Ni	Ni	0.86833 0.26016 0.29091 1.07700
O 	O 	0.73662 0.08966 0.41269 -0.40800
O 	O 	0.91818 0.26594 0.18111 -0.36600
O 	O 	0.83249 0.21239 0.10182 -0.37800
O 	O 	0.81581 0.11797 0.25961 -0.70100
O 	O 	0.81391 0.10996 0.45437 -0.38400
O 	O 	0.80394 0.11818 0.07682 -0.37500
O 	O 	0.72956 0.08420 0.15343 -0.41800
Ni	Ni	0.74238 0.09381 0.28325 1.05600
H 	H 	0.89680 0.20204 0.27353 0.15300
H 	H 	0.82997 0.09514 0.23772 0.16600
C 	C 	0.92940 0.23343 0.12982 0.27200
O 	O 	0.73832 0.15701 0.30252 -0.41600
C 	C 	0.92134 0.24287 0.42893 0.26100
C 	C 	0.81270 0.24096 0.13343 0.29200
C 	C 	0.76010 0.18652 0.36642 0.24800
C 	C 	0.76344 0.08217 0.09025 0.28300
C 	C 	0.76804 0.08013 0.44881 0.28700
O 	O 	0.90127 0.18862 0.13156 -0.35800
O 	O 	0.81308 0.25478 0.21708 -0.41200
C 	C 	0.46744 0.24820 0.05790 -0.06200
C 	C 	0.51031 0.28842 0.06857 0.01800
C 	C 	0.54174 0.30617 0.99586 -0.01300
H 	H 	0.57516 0.33651 0.00426 0.04500
C 	C 	0.53578 0.28031 0.91564 -0.07600
C 	C 	0.49077 0.24222 0.90407 0.02200
C 	C 	0.45664 0.22722 0.97519 -0.01900
H 	H 	0.42216 0.19812 0.96632 0.05300
C 	C 	0.48223 0.21369 0.82076 0.01600
C 	C 	0.46315 0.22544 0.75622 -0.04500
C 	C 	0.44425 0.19386 0.68626 -0.02000
C 	C 	0.44606 0.15116 0.67874 -0.03600
C 	C 	0.46674 0.13985 0.74114 -0.02700
C 	C 	0.48442 0.17080 0.81240 -0.05500
C 	C 	0.52531 0.30947 0.15564 0.01900
C 	C 	0.53440 0.35538 0.17957 -0.05100
C 	C 	0.55409 0.37655 0.25752 -0.02300
C 	C 	0.56469 0.35206 0.31188 -0.03900
C 	C 	0.55454 0.30610 0.28945 -0.01900
C 	C 	0.53460 0.28468 0.21184 -0.04900
H 	H 	0.56175 0.41209 0.27524 0.02500
H 	H 	0.58104 0.36876 0.37117 0.03700
H 	H 	0.56307 0.28732 0.33134 0.03500
H 	H 	0.52782 0.24932 0.19413 0.04100
H 	H 	0.52714 0.37480 0.13706 0.03900
H 	H 	0.46145 0.25833 0.76170 0.03800
H 	H 	0.42817 0.20246 0.63788 0.03800
H 	H 	0.49854 0.16109 0.86232 0.04200
H 	H 	0.46823 0.10678 0.73515 0.02200
H 	H 	0.43142 0.12684 0.62453 0.03200
C 	C 	0.54159 0.24497 0.55133 -0.07200
C 	C 	0.52669 0.21584 0.47567 0.01800
C 	C 	0.48942 0.21763 0.43261 -0.02900
H 	H 	0.47680 0.19412 0.37615 0.01700
C 	C 	0.46760 0.24891 0.46296 -0.07300
C 	C 	0.48458 0.27981 0.53579 0.01900
C 	C 	0.52194 0.27806 0.57875 -0.02300
H 	H 	0.53513 0.30199 0.63443 0.03000
C 	C 	0.46223 0.31296 0.56939 0.01400
C 	C 	0.42506 0.30381 0.63877 -0.04900
C 	C 	0.40343 0.33493 0.66962 -0.02100
C 	C 	0.41901 0.37536 0.63181 -0.03300
C 	C 	0.45625 0.38473 0.56305 -0.02700
C 	C 	0.47791 0.35365 0.53187 -0.04600
C 	C 	0.55137 0.18474 0.43917 0.01000
C 	C 	0.54268 0.14639 0.48028 -0.05100
C 	C 	0.56910 0.11908 0.44960 -0.03000
C 	C 	0.60408 0.12980 0.37772 -0.03300
C 	C 	0.61241 0.16763 0.33597 -0.02500
C 	C 	0.58585 0.19490 0.36610 -0.04500
H 	H 	0.56278 0.08983 0.48199 0.02600
H 	H 	0.62497 0.10898 0.35477 0.02700
H 	H 	0.64000 0.17623 0.28112 0.03800
H 	H 	0.59295 0.22449 0.33408 0.03800
H 	H 	0.51621 0.13826 0.53670 0.03700
H 	H 	0.41231 0.27235 0.66762 0.03900
H 	H 	0.37441 0.32759 0.72255 0.03400
H 	H 	0.50675 0.36113 0.47873 0.04300
H 	H 	0.46833 0.41608 0.53394 0.02800
H 	H 	0.40221 0.39941 0.65574 0.02900
C 	C 	0.71388 0.44558 0.52082 -0.07400
C 	C 	0.69379 0.47640 0.56479 0.00700
C 	C 	0.71273 0.52090 0.54209 -0.01600
H 	H 	0.69720 0.54461 0.57560 0.03800
C 	C 	0.75233 0.53514 0.47756 -0.09300
C 	C 	0.77071 0.50363 0.43115 0.01300
C 	C 	0.74985 0.45880 0.45068 -0.02400
H 	H 	0.76664 0.43577 0.41922 0.04800
C 	C 	0.81301 0.51744 0.36374 -0.00300
C 	C 	0.86109 0.54416 0.38684 -0.05300
C 	C 	0.90121 0.55600 0.32326 -0.03700
C 	C 	0.89377 0.54006 0.23687 -0.04600
C 	C 	0.84623 0.51215 0.21394 -0.03200
C 	C 	0.80590 0.50066 0.27719 -0.06600
C 	C 	0.65696 0.46374 0.64071 0.00800
C 	C 	0.67166 0.47997 0.72415 -0.05700
C 	C 	0.63833 0.46416 0.79611 -0.02400
C 	C 	0.59020 0.43235 0.78515 -0.03800
C 	C 	0.57517 0.41657 0.70222 -0.02800
C 	C 	0.60837 0.43230 0.63002 -0.04500
H 	H 	0.64996 0.47621 0.86033 0.03300
H 	H 	0.56458 0.41986 0.84089 0.03600
H 	H 	0.53796 0.39184 0.69389 0.03400
H 	H 	0.59677 0.41931 0.56593 0.04300
H 	H 	0.70917 0.50400 0.73310 0.03200
H 	H 	0.86729 0.55579 0.45387 0.04300
H 	H 	0.93809 0.57734 0.34100 0.02800
H 	H 	0.76932 0.47845 0.25924 0.03100
H 	H 	0.84061 0.49972 0.14711 0.03100
H 	H 	0.92486 0.54926 0.18773 0.03200
C 	C 	0.75766 0.53874 0.03863 -0.08700
C 	C 	0.76952 0.53685 0.94830 0.02600
C 	C 	0.77229 0.49727 0.90211 -0.02800
H 	H 	0.78049 0.49568 0.83257 0.00900
C 	C 	0.76157 0.45891 0.94482 -0.07500
C 	C 	0.74859 0.46075 0.03527 0.01800
C 	C 	0.74617 0.50036 0.08100 -0.02300
H 	H 	0.73613 0.50152 0.15007 0.00800
C 	C 	0.73467 0.42034 0.08125 0.01500
C 	C 	0.76954 0.40140 0.08200 -0.04300
C 	C 	0.75356 0.35603 0.09606 -0.01900
C 	C 	0.70315 0.33010 0.11396 -0.02600
C 	C 	0.66868 0.34981 0.12025 -0.01800
C 	C 	0.68436 0.39509 0.10536 -0.04000
C 	C 	0.77742 0.57585 0.90202 0.01100
C 	C 	0.82588 0.60488 0.87529 -0.03700
C 	C 	0.83521 0.64834 0.85578 -0.02100
C 	C 	0.79634 0.66276 0.86181 -0.02700
C 	C 	0.74774 0.63311 0.88362 -0.02000
C 	C 	0.73806 0.58940 0.90196 -0.04200
H 	H 	0.87262 0.67117 0.83788 0.03800
H 	H 	0.80358 0.69619 0.84586 0.03900
H 	H 	0.71758 0.64384 0.88529 0.03800
H 	H 	0.70039 0.56703 0.92123 0.04100
H 	H 	0.85657 0.59480 0.87480 0.04100
H 	H 	0.80856 0.42079 0.06509 0.04000
H 	H 	0.78026 0.34127 0.09490 0.03800
H 	H 	0.65709 0.40944 0.10578 0.04000
H 	H 	0.62978 0.32969 0.13425 0.04000
H 	H 	0.69107 0.29528 0.12625 0.04400
C 	C 	0.71600 0.23587 0.95178 -0.07400
C 	C 	0.69623 0.21470 0.02895 0.02000
C 	C 	0.72782 0.22051 0.09253 -0.02300
H 	H 	0.71282 0.20288 0.15003 0.04000
C 	C 	0.77892 0.24717 0.08063 -0.07400
C 	C 	0.79863 0.26872 0.00390 0.01900
C 	C 	0.76713 0.26251 0.94001 -0.02300
H 	H 	0.78200 0.28057 0.88300 0.02400
C 	C 	0.85227 0.29901 0.99103 0.01700
C 	C 	0.87528 0.33171 0.05767 -0.04700
C 	C 	0.92596 0.35862 0.04684 -0.02000
C 	C 	0.95371 0.35439 0.96874 -0.03500
C 	C 	0.93088 0.32326 0.90119 -0.02000
C 	C 	0.88054 0.29508 0.91243 -0.04600
C 	C 	0.64212 0.18772 0.04532 0.01400
C 	C 	0.61509 0.19851 0.12022 -0.04600
C 	C 	0.56408 0.17345 0.13486 -0.02000
C 	C 	0.53966 0.13795 0.07469 -0.03600
C 	C 	0.56633 0.12680 0.00048 -0.02500
C 	C 	0.61748 0.15119 0.98615 -0.04300
H 	H 	0.54355 0.18130 0.19324 0.02800
H 	H 	0.50011 0.11885 0.08588 0.03400
H 	H 	0.54738 0.09914 0.95413 0.02800
H 	H 	0.63777 0.14201 0.92882 0.04300
H 	H 	0.63360 0.22581 0.16750 0.03900
H 	H 	0.85415 0.33577 0.11824 0.03900
H 	H 	0.94368 0.38295 0.09896 0.02800
H 	H 	0.86356 0.27062 0.85997 0.03800
H 	H 	0.95211 0.32131 0.83982 0.03100
H 	H 	0.99288 0.37548 0.96036 0.03600
C 	C 	0.78278 0.28358 0.54786 -0.07300
C 	C 	0.74679 0.23917 0.55845 0.00800
C 	C 	0.71868 0.21551 0.48846 -0.01200
H 	H 	0.68733 0.18379 0.49783 0.03800
C 	C 	0.74295 0.22249 0.40541 -0.05600
C 	C 	0.77603 0.26772 0.39531 -0.03900
C 	C 	0.80571 0.29061 0.46370 -0.02400
H 	H 	0.83716 0.32216 0.45346 0.02000
C 	C 	0.76071 0.29578 0.34863 0.03700
C 	C 	0.71062 0.29036 0.35731 -0.04500
C 	C 	0.69773 0.32375 0.33435 -0.01100
C 	C 	0.73439 0.36273 0.30274 -0.03600
C 	C 	0.78390 0.36767 0.29060 -0.01800
C 	C 	0.79707 0.33419 0.31244 -0.04700
C 	C 	0.75251 0.21212 0.62062 0.00100
C 	C 	0.70994 0.17861 0.65794 -0.03000
C 	C 	0.71297 0.14069 0.68434 -0.02800
C 	C 	0.75851 0.13649 0.67549 -0.02700
C 	C 	0.80170 0.17194 0.64743 -0.01700
C 	C 	0.79892 0.21010 0.62161 -0.03500
H 	H 	0.67975 0.11390 0.70915 0.02900
H 	H 	0.76050 0.10620 0.69232 0.03800
H 	H 	0.83715 0.16925 0.64322 0.03900
H 	H 	0.83221 0.23600 0.59492 0.05600
H 	H 	0.67395 0.18000 0.65921 -0.02300
H 	H 	0.68221 0.26197 0.38738 0.05900
H 	H 	0.65938 0.31990 0.34317 0.03600
H 	H 	0.83575 0.33899 0.30493 0.01300
H 	H 	0.81217 0.39771 0.26494 0.03100
H 	H 	0.72438 0.38896 0.28662 0.03800
Ni	Ni	0.68961 0.82347 0.82778 1.10200
O 	O 	0.70344 0.86681 0.73869 -0.58200
Ni	Ni	0.67064 0.82359 0.64242 1.10200
O 	O 	0.71650 0.87808 0.91583 -0.36100
O 	O 	0.78769 0.91240 0.82718 -0.40400
O 	O 	0.61827 0.82003 0.85137 -0.38700
Ni	Ni	0.77109 0.90482 0.69917 1.06800
O 	O 	0.66694 0.71467 0.82734 -0.39400
O 	O 	0.79317 0.85106 0.65080 -0.39400
O 	O 	0.67112 0.87096 0.57027 -0.36800
O 	O 	0.67698 0.78085 0.71942 -0.70000
O 	O 	0.67373 0.77942 0.91741 -0.37300
O 	O 	0.62791 0.77000 0.56556 -0.38400
O 	O 	0.57288 0.73091 0.67296 -0.39400
Ni	Ni	0.62375 0.72363 0.74488 1.07200
H 	H 	0.72740 0.85350 0.74050 -0.04000
H 	H 	0.70702 0.77443 0.70331 0.15300
C 	C 	0.76818 0.82025 0.59080 0.27600
O 	O 	0.58858 0.74368 0.85268 -0.39200
C 	C 	0.75494 0.91493 0.89355 0.26900
C 	C 	0.71220 0.90838 0.56478 0.27500
C 	C 	0.58068 0.78096 0.86214 0.29600
C 	C 	0.58256 0.74543 0.59492 0.27100
C 	C 	0.68283 0.74264 0.89821 0.27800
O 	O 	0.73102 0.82385 0.56282 -0.36900
O 	O 	0.75502 0.90867 0.58019 -0.40100
Ni	Ni	0.84119 0.65716 0.36861 1.09900
O 	O 	0.86223 0.69964 0.27923 -0.71200
Ni	Ni	0.82766 0.66587 0.17763 1.10200
O 	O 	0.87984 0.70939 0.45457 -0.37600
O 	O 	0.92156 0.77268 0.37804 -0.37300
O 	O 	0.78410 0.67526 0.41499 -0.38100
Ni	Ni	0.86833 0.76016 0.29091 1.07700
O 	O 	0.73662 0.58966 0.41269 -0.40800
O 	O 	0.91818 0.76594 0.18111 -0.36600
O 	O 	0.83249 0.71240 0.10182 -0.37800
O 	O 	0.81581 0.61797 0.25961 -0.70100
O 	O 	0.81391 0.60996 0.45437 -0.38400
O 	O 	0.80394 0.61819 0.07682 -0.37500
O 	O 	0.72956 0.58420 0.15343 -0.41800
Ni	Ni	0.74238 0.59381 0.28325 1.05600
H 	H 	0.89680 0.70204 0.27353 0.15300
H 	H 	0.82997 0.59514 0.23772 0.16600
C 	C 	0.92940 0.73343 0.12982 0.27200
O 	O 	0.73832 0.65701 0.30252 -0.41600
C 	C 	0.92134 0.74287 0.42893 0.26100
C 	C 	0.81270 0.74096 0.13343 0.29200
C 	C 	0.76010 0.68652 0.36642 0.24800
C 	C 	0.76344 0.58217 0.09025 0.28300
C 	C 	0.76804 0.58013 0.44881 0.28600
O 	O 	0.90127 0.68862 0.13156 -0.35900
O 	O 	0.81308 0.75478 0.21708 -0.41200
C 	C 	0.46744 0.74820 0.05790 -0.06200
C 	C 	0.51031 0.78842 0.06857 0.01800
C 	C 	0.54174 0.80617 0.99586 -0.01300
H 	H 	0.57516 0.83651 0.00426 0.04500
C 	C 	0.53578 0.78030 0.91564 -0.07600
C 	C 	0.49077 0.74222 0.90407 0.02200
C 	C 	0.45664 0.72722 0.97519 -0.01800
H 	H 	0.42216 0.69812 0.96632 0.05300
C 	C 	0.48223 0.71369 0.82076 0.01600
C 	C 	0.46316 0.72544 0.75622 -0.04500
C 	C 	0.44425 0.69386 0.68626 -0.02000
C 	C 	0.44606 0.65116 0.67874 -0.03600
C 	C 	0.46674 0.63985 0.74114 -0.02700
C 	C 	0.48442 0.67080 0.81240 -0.05500
C 	C 	0.52531 0.80947 0.15564 0.01900
C 	C 	0.53440 0.85538 0.17957 -0.05100
C 	C 	0.55409 0.87655 0.25752 -0.02300
C 	C 	0.56469 0.85206 0.31188 -0.03900
C 	C 	0.55454 0.80610 0.28945 -0.01900
C 	C 	0.53460 0.78468 0.21184 -0.04900
H 	H 	0.56175 0.91209 0.27524 0.02500
H 	H 	0.58104 0.86877 0.37117 0.03700
H 	H 	0.56307 0.78732 0.33134 0.03500
H 	H 	0.52782 0.74932 0.19413 0.04100
H 	H 	0.52714 0.87480 0.13706 0.03900
H 	H 	0.46145 0.75833 0.76170 0.03800
H 	H 	0.42817 0.70246 0.63788 0.03800
H 	H 	0.49854 0.66109 0.86232 0.04200
H 	H 	0.46823 0.60678 0.73515 0.02200
H 	H 	0.43142 0.62684 0.62453 0.03200
C 	C 	0.54159 0.74497 0.55133 -0.07200
C 	C 	0.52669 0.71584 0.47567 0.01800
C 	C 	0.48942 0.71762 0.43261 -0.02900
H 	H 	0.47680 0.69412 0.37615 0.01700
C 	C 	0.46760 0.74891 0.46296 -0.07300
C 	C 	0.48458 0.77981 0.53579 0.01900
C 	C 	0.52194 0.77806 0.57875 -0.02300
H 	H 	0.53513 0.80199 0.63443 0.03000
C 	C 	0.46223 0.81296 0.56939 0.01400
C 	C 	0.42506 0.80381 0.63877 -0.04900
C 	C 	0.40343 0.83493 0.66962 -0.02100
C 	C 	0.41901 0.87536 0.63181 -0.03300
C 	C 	0.45625 0.88473 0.56305 -0.02700
C 	C 	0.47791 0.85365 0.53187 -0.04600
C 	C 	0.55137 0.68474 0.43917 0.01000
C 	C 	0.54268 0.64639 0.48028 -0.05100
C 	C 	0.56910 0.61908 0.44960 -0.03000
C 	C 	0.60408 0.62980 0.37772 -0.03300
C 	C 	0.61241 0.66763 0.33597 -0.02500
C 	C 	0.58585 0.69490 0.36610 -0.04500
H 	H 	0.56278 0.58983 0.48199 0.02600
H 	H 	0.62497 0.60898 0.35477 0.02600
H 	H 	0.64000 0.67623 0.28112 0.03800
H 	H 	0.59295 0.72449 0.33408 0.03800
H 	H 	0.51621 0.63826 0.53670 0.03700
H 	H 	0.41231 0.77235 0.66762 0.03900
H 	H 	0.37441 0.82759 0.72255 0.03400
H 	H 	0.50675 0.86113 0.47873 0.04300
H 	H 	0.46833 0.91608 0.53394 0.02700
H 	H 	0.40221 0.89941 0.65574 0.02900
C 	C 	0.71388 0.94558 0.52082 -0.07300
C 	C 	0.69379 0.97640 0.56479 0.00400
C 	C 	0.71273 0.02090 0.54209 -0.01400
H 	H 	0.69720 0.04461 0.57560 0.03800
C 	C 	0.75233 0.03514 0.47756 -0.09500
C 	C 	0.77071 0.00363 0.43115 0.01500
C 	C 	0.74985 0.95880 0.45068 -0.02700
H 	H 	0.76664 0.93577 0.41922 0.04900
C 	C 	0.81301 0.01744 0.36374 -0.00400
C 	C 	0.86109 0.04416 0.38684 -0.05300
C 	C 	0.90121 0.05600 0.32326 -0.03700
C 	C 	0.89377 0.04006 0.23687 -0.04600
C 	C 	0.84623 0.01215 0.21394 -0.03100
C 	C 	0.80590 0.00066 0.27719 -0.06400
C 	C 	0.65696 0.96374 0.64071 0.00900
C 	C 	0.67166 0.97997 0.72415 -0.05900
C 	C 	0.63833 0.96416 0.79611 -0.02400
C 	C 	0.59020 0.93236 0.78515 -0.03800
C 	C 	0.57517 0.91657 0.70222 -0.02700
C 	C 	0.60837 0.93230 0.63002 -0.04600
H 	H 	0.64996 0.97621 0.86033 0.03200
H 	H 	0.56458 0.91986 0.84089 0.03600
H 	H 	0.53796 0.89184 0.69389 0.03400
H 	H 	0.59677 0.91931 0.56593 0.04300
H 	H 	0.70917 0.00400 0.73310 0.03300
H 	H 	0.86729 0.05579 0.45387 0.04300
H 	H 	0.93809 0.07734 0.34100 0.02900
H 	H 	0.76931 0.97845 0.25924 0.02900
H 	H 	0.84061 0.99972 0.14711 0.03000
H 	H 	0.92486 0.04926 0.18773 0.03300
C 	C 	0.75766 0.03874 0.03863 -0.08800
C 	C 	0.76952 0.03685 0.94830 0.02700
C 	C 	0.77229 0.99727 0.90211 -0.03000
H 	H 	0.78049 0.99568 0.83257 0.00900
C 	C 	0.76157 0.95891 0.94482 -0.07400
C 	C 	0.74859 0.96075 0.03527 0.01600
C 	C 	0.74617 0.00036 0.08100 -0.02000
H 	H 	0.73613 0.00152 0.15007 0.00800
C 	C 	0.73467 0.92034 0.08125 0.01600
C 	C 	0.76954 0.90140 0.08200 -0.04300
C 	C 	0.75356 0.85604 0.09606 -0.01900
C 	C 	0.70315 0.83010 0.11396 -0.02600
C 	C 	0.66868 0.84981 0.12025 -0.01800
C 	C 	0.68436 0.89509 0.10536 -0.04000
C 	C 	0.77742 0.07584 0.90202 0.01000
C 	C 	0.82588 0.10487 0.87529 -0.03700
C 	C 	0.83521 0.14835 0.85578 -0.02100
C 	C 	0.79634 0.16276 0.86181 -0.02700
C 	C 	0.74774 0.13311 0.88362 -0.02000
C 	C 	0.73806 0.08940 0.90196 -0.04100
H 	H 	0.87262 0.17117 0.83788 0.03800
H 	H 	0.80358 0.19619 0.84586 0.03900
H 	H 	0.71758 0.14385 0.88529 0.03800
H 	H 	0.70039 0.06703 0.92123 0.04100
H 	H 	0.85657 0.09480 0.87480 0.04100
H 	H 	0.80856 0.92079 0.06509 0.04000
H 	H 	0.78026 0.84127 0.09490 0.03800
H 	H 	0.65709 0.90944 0.10578 0.04000
H 	H 	0.62978 0.82969 0.13425 0.04000
H 	H 	0.69107 0.79528 0.12625 0.04400
C 	C 	0.71600 0.73588 0.95178 -0.07400
C 	C 	0.69623 0.71470 0.02895 0.02000
C 	C 	0.72782 0.72052 0.09253 -0.02300
H 	H 	0.71281 0.70288 0.15003 0.04000
C 	C 	0.77892 0.74717 0.08063 -0.07400
C 	C 	0.79863 0.76872 0.00390 0.01800
C 	C 	0.76713 0.76251 0.94001 -0.02300
H 	H 	0.78200 0.78057 0.88300 0.02400
C 	C 	0.85227 0.79901 0.99103 0.01700
C 	C 	0.87528 0.83171 0.05767 -0.04700
C 	C 	0.92596 0.85862 0.04684 -0.02000
C 	C 	0.95371 0.85439 0.96874 -0.03400
C 	C 	0.93088 0.82326 0.90119 -0.02000
C 	C 	0.88054 0.79508 0.91243 -0.04600
C 	C 	0.64212 0.68772 0.04532 0.01400
C 	C 	0.61509 0.69851 0.12022 -0.04600
C 	C 	0.56409 0.67345 0.13486 -0.02100
C 	C 	0.53966 0.63795 0.07469 -0.03600
C 	C 	0.56633 0.62680 0.00048 -0.02600
C 	C 	0.61748 0.65119 0.98615 -0.04200
H 	H 	0.54355 0.68130 0.19324 0.02800
H 	H 	0.50011 0.61885 0.08588 0.03400
H 	H 	0.54738 0.59914 0.95413 0.02800
H 	H 	0.63777 0.64201 0.92882 0.04200
H 	H 	0.63360 0.72581 0.16750 0.03900
H 	H 	0.85415 0.83577 0.11824 0.03900
H 	H 	0.94368 0.88295 0.09896 0.02800
H 	H 	0.86356 0.77062 0.85997 0.03800
H 	H 	0.95211 0.82131 0.83982 0.03100
H 	H 	0.99288 0.87548 0.96036 0.03600
C 	C 	0.78278 0.78358 0.54786 -0.07300
C 	C 	0.74679 0.73917 0.55845 0.00800
C 	C 	0.71868 0.71551 0.48846 -0.01200
H 	H 	0.68733 0.68379 0.49783 0.03800
C 	C 	0.74295 0.72249 0.40541 -0.05600
C 	C 	0.77603 0.76772 0.39531 -0.03900
C 	C 	0.80571 0.79061 0.46370 -0.02400
H 	H 	0.83716 0.82216 0.45346 0.02000
C 	C 	0.76071 0.79578 0.34863 0.03700
C 	C 	0.71062 0.79036 0.35731 -0.04500
C 	C 	0.69773 0.82375 0.33435 -0.01100
C 	C 	0.73439 0.86273 0.30274 -0.03600
C 	C 	0.78390 0.86767 0.29060 -0.01800
C 	C 	0.79707 0.83418 0.31244 -0.04700
C 	C 	0.75251 0.71212 0.62062 0.00100
C 	C 	0.70994 0.67861 0.65794 -0.03000
C 	C 	0.71297 0.64069 0.68434 -0.02800
C 	C 	0.75851 0.63649 0.67549 -0.02700
C 	C 	0.80170 0.67195 0.64743 -0.01700
C 	C 	0.79892 0.71010 0.62161 -0.03500
H 	H 	0.67975 0.61390 0.70915 0.02900
H 	H 	0.76050 0.60620 0.69232 0.03700
H 	H 	0.83715 0.66925 0.64322 0.03900
H 	H 	0.83221 0.73600 0.59492 0.05600
H 	H 	0.67395 0.68000 0.65921 -0.02300
H 	H 	0.68221 0.76197 0.38738 0.05900
H 	H 	0.65938 0.81990 0.34317 0.03600
H 	H 	0.83575 0.83899 0.30493 0.01300
H 	H 	0.81217 0.89771 0.26494 0.03100
H 	H 	0.72438 0.88896 0.28662 0.03800
