data_crystal

_audit_creation_method 'AiiDA-DDEC plugin'

_cell_length_a         7.96389
_cell_length_b        14.28929
_cell_length_c        14.28939

_cell_angle_alpha     69.65465
_cell_angle_beta     88.40944
_cell_angle_gamma     88.40943

_symmetry_space_group_name_Hall 'P 1'
_symmetry_space_group_name_H-M  'P 1'

loop_
_symmetry_equiv_pos_as_xyz
 'x,y,z'

loop_
_atom_site_label
_atom_site_type_symbol
_atom_site_fract_x
_atom_site_fract_y
_atom_site_fract_z
_atom_site_charge
La         La     -0.00213   0.25530   0.22327   1.94444
La         La      0.49787   0.22327   0.25530   1.94446
H          H       0.49664   0.42785   0.60855   0.11058
H          H       0.57028   0.72424   0.39873   0.10903
H          H       0.73128   0.64748   0.70149   0.10899
H          H       0.53224   0.24625   0.95738   0.13685
H          H       0.46069   0.33985   0.76831   0.12907
H          H       0.20926   0.60428   0.20831   0.14395
H          H       0.36454   0.69592   0.31194   0.12714
H          H       0.96103   0.96908   0.56959   0.14163
H          H       0.87838   0.77993   0.65432   0.12979
H          H      -0.00336   0.60855   0.42785   0.11066
H          H       0.07028   0.39873   0.72423   0.10892
H          H       0.23128   0.70150   0.64748   0.10901
H          H       0.03225   0.95738   0.24625   0.13690
H          H       0.96069   0.76831   0.33985   0.12907
H          H       0.70926   0.20831   0.60428   0.14391
H          H       0.86453   0.31194   0.69592   0.12711
H          H       0.46102   0.56959   0.96908   0.14156
H          H       0.37838   0.65432   0.77992   0.12981
C          C       0.61897   0.52867   0.66654   0.08428
C          C       0.54138   0.50321   0.59172  -0.16800
C          C       0.51977   0.57353   0.49560   0.08492
C          C       0.58077   0.67039   0.47403  -0.19045
C          C       0.65813   0.69798   0.54734   0.08122
C          C       0.67507   0.62635   0.64347  -0.17687
C          C       0.63522   0.45546   0.76733  -0.00886
C          C       0.70271   0.36547   0.94603  -0.13706
C          C       0.58766   0.31582   0.91022  -0.10355
C          C       0.55042   0.36609   0.80898  -0.16613
C          C       0.77201   0.33439   0.04594   0.58653
C          C       0.43311   0.54888   0.41845  -0.01762
C          C       0.28505   0.46413   0.32019  -0.14111
C          C       0.27632   0.56741   0.27701  -0.09596
C          C       0.36146   0.61538   0.33201  -0.16225
C          C       0.20567   0.39278   0.28400   0.56448
C          C       0.72289   0.79801   0.52546  -0.02183
C          C       0.80228   0.97598   0.44690  -0.11639
C          C       0.87564   0.92985   0.53889  -0.09807
C          C       0.83006   0.82942   0.58362  -0.16253
C          C       0.83720   0.07626   0.37778   0.58485
C          C       0.11897   0.66655   0.52867   0.08432
C          C       0.04138   0.59172   0.50321  -0.16803
C          C       0.01977   0.49560   0.57352   0.08487
C          C       0.08077   0.47403   0.67039  -0.19040
C          C       0.15813   0.54734   0.69798   0.08118
C          C       0.17507   0.64347   0.62635  -0.17683
C          C       0.13522   0.76733   0.45545  -0.00885
C          C       0.20271   0.94604   0.36547  -0.13693
C          C       0.08766   0.91022   0.31582  -0.10352
C          C       0.05042   0.80898   0.36609  -0.16610
C          C       0.27201   0.04595   0.33439   0.58657
C          C       0.93311   0.41845   0.54888  -0.01752
C          C       0.78505   0.32019   0.46412  -0.14119
C          C       0.77632   0.27701   0.56741  -0.09599
C          C       0.86146   0.33201   0.61538  -0.16235
C          C       0.70567   0.28400   0.39278   0.56455
C          C       0.22288   0.52546   0.79801  -0.02186
C          C       0.30227   0.44690   0.97598  -0.11647
C          C       0.37563   0.53890   0.92984  -0.09811
C          C       0.33006   0.58363   0.82942  -0.16234
C          C       0.33720   0.37778   0.07626   0.58476
S          S       0.76536   0.47516   0.85413   0.15483
S          S       0.39700   0.42660   0.42935   0.18427
S          S       0.67468   0.89517   0.41637   0.15706
S          S       0.26536   0.85413   0.47516   0.15473
S          S       0.89700   0.42935   0.42660   0.18441
S          S       0.17467   0.41637   0.89516   0.15705
O          O       0.71698   0.25333   0.11399  -0.69905
O          O       0.89016   0.38322   0.06410  -0.57292
O          O       0.09041   0.42246   0.22039  -0.55379
O          O       0.25004   0.29829   0.31960  -0.68999
O          O       0.94983   0.12689   0.39841  -0.57055
O          O       0.75903   0.11056   0.29306  -0.71097
O          O       0.21698   0.11399   0.25333  -0.69894
O          O       0.39016   0.06411   0.38322  -0.57303
O          O       0.59041   0.22039   0.42246  -0.55391
O          O       0.75004   0.31960   0.29829  -0.68993
O          O       0.44983   0.39841   0.12689  -0.57054
O          O       0.25903   0.29306   0.11055  -0.71095

