data_crystal

_audit_creation_method 'AiiDA-DDEC plugin'

_cell_length_a         9.98216
_cell_length_b         9.98253
_cell_length_c        15.44141

_cell_angle_alpha     71.60111
_cell_angle_beta     71.70319
_cell_angle_gamma     84.90662

_symmetry_space_group_name_Hall 'P 1'
_symmetry_space_group_name_H-M  'P 1'

loop_
_symmetry_equiv_pos_as_xyz
 'x,y,z'

loop_
_atom_site_label
_atom_site_type_symbol
_atom_site_fract_x
_atom_site_fract_y
_atom_site_fract_z
_atom_site_charge
Cu         Cu      0.54591   0.01313   0.30341   0.82347
Cu         Cu      0.98685   0.45426   0.19630   0.82595
Cu         Cu      0.45409   0.98687   0.69659   0.82345
Cu         Cu      0.01315   0.54574   0.80370   0.82601
H          H       0.80581   0.16535   0.03374   0.12055
H          H       0.78172   0.20211   0.31005   0.11006
H          H       0.39919   0.26547   0.37660   0.10763
H          H       0.54900   0.22477   0.42080   0.09997
H          H       0.42503   0.28876   0.21114   0.11586
H          H       0.59570   0.26940   0.13180   0.09792
H          H       0.37703   0.48915   0.26901   0.11388
H          H       0.83490   0.19438   0.46607   0.12036
H          H       0.79742   0.21887   0.18914   0.10924
H          H       0.73377   0.60141   0.12300   0.10878
H          H       0.77437   0.45140   0.07891   0.10003
H          H       0.71127   0.57473   0.28875   0.11472
H          H       0.73087   0.40354   0.36789   0.09827
H          H       0.51093   0.62297   0.23068   0.11354
H          H       0.19419   0.83465   0.96626   0.12048
H          H       0.21828   0.79789   0.68995   0.10998
H          H       0.60081   0.73453   0.62341   0.10762
H          H       0.45100   0.77523   0.57920   0.09991
H          H       0.57496   0.71124   0.78887   0.11580
H          H       0.40430   0.73060   0.86820   0.09802
H          H       0.62297   0.51085   0.73099   0.11388
H          H       0.16510   0.80562   0.53393   0.12037
H          H       0.20258   0.78113   0.81086   0.10930
H          H       0.26623   0.39859   0.87701   0.10876
H          H       0.22562   0.54860   0.92109   0.10011
H          H       0.28873   0.42527   0.71126   0.11471
H          H       0.26913   0.59646   0.63211   0.09817
H          H       0.48906   0.37703   0.76932   0.11358
C          C       0.87953   0.95359   0.08004  -0.02541
C          C       0.99009   0.85948   0.06044  -0.02251
C          C       0.89175   0.09283   0.01936  -0.11417
C          C       0.74699   0.91211   0.16298   0.58171
C          C       0.99034   0.71145   0.12364   0.56246
C          C       0.51243   0.28370   0.35942  -0.00967
C          C       0.53820   0.30953   0.19161  -0.01907
C          C       0.04632   0.12090   0.42012  -0.02397
C          C       0.14051   0.01019   0.43953  -0.02347
C          C       0.90724   0.10836   0.48081  -0.11374
C          C       0.08761   0.25360   0.33710   0.57998
C          C       0.28883   0.00974   0.37685   0.56558
C          C       0.71579   0.48803   0.14021  -0.01274
C          C       0.69063   0.46149   0.30811  -0.01650
C          C       0.12046   0.04641   0.91996  -0.02532
C          C       0.00991   0.14052   0.93957  -0.02238
C          C       0.10825   0.90717   0.98064  -0.11404
C          C       0.25301   0.08788   0.83702   0.58163
C          C       0.00966   0.28855   0.87637   0.56254
C          C       0.48757   0.71629   0.64058  -0.00970
C          C       0.46179   0.69047   0.80840  -0.01902
C          C       0.95367   0.87910   0.57988  -0.02387
C          C       0.85948   0.98981   0.56047  -0.02352
C          C       0.09276   0.89164   0.51919  -0.11381
C          C       0.91238   0.74640   0.66291   0.57983
C          C       0.71117   0.99026   0.62316   0.56563
C          C       0.28421   0.51197   0.85979  -0.01264
C          C       0.30937   0.53851   0.69190  -0.01644
C          C       0.74244   0.25769   0.24969  -0.02163
C          C       0.49020   0.50976   0.24986  -0.01091
C          C       0.25756   0.74231   0.75031  -0.02165
C          C       0.50979   0.49024   0.75015  -0.01101
N          N       0.58853   0.22889   0.27650  -0.16502
N          N       0.54016   0.43457   0.33318  -0.16690
N          N       0.77104   0.41170   0.22307  -0.16538
N          N       0.56503   0.46010   0.16650  -0.16622
N          N       0.41147   0.77111   0.72350  -0.16503
N          N       0.45984   0.56543   0.66682  -0.16704
N          N       0.22896   0.58830   0.77694  -0.16539
N          N       0.43497   0.53990   0.83351  -0.16610
O          O       0.71088   0.01247   0.20369  -0.59068
O          O       0.68135   0.80023   0.18614  -0.53043
O          O       0.01914   0.61272   0.08125  -0.56115
O          O       0.96706   0.68089   0.21234  -0.51235
O          O       0.98564   0.29214   0.29803  -0.59159
O          O       0.20117   0.31701   0.31199  -0.53049
O          O       0.38732   0.98088   0.41949  -0.56114
O          O       0.31975   0.03247   0.28816  -0.51485
O          O       0.28912   0.98753   0.79632  -0.59071
O          O       0.31865   0.19977   0.81387  -0.53044
O          O       0.98086   0.38728   0.91876  -0.56105
O          O       0.03293   0.31911   0.78766  -0.51262
O          O       0.01436   0.70786   0.70197  -0.59151
O          O       0.79882   0.68299   0.68801  -0.53042
O          O       0.61268   0.01911   0.58051  -0.56127
O          O       0.68025   0.96752   0.71185  -0.51474

