data_crystal

_audit_creation_method 'AiiDA-DDEC plugin'

_cell_length_a        10.73315
_cell_length_b        10.73336
_cell_length_c        10.82876

_cell_angle_alpha     105.81518
_cell_angle_beta     105.92686
_cell_angle_gamma     102.40885

_symmetry_space_group_name_Hall 'P 1'
_symmetry_space_group_name_H-M  'P 1'

loop_
_symmetry_equiv_pos_as_xyz
 'x,y,z'

loop_
_atom_site_label
_atom_site_type_symbol
_atom_site_fract_x
_atom_site_fract_y
_atom_site_fract_z
_atom_site_charge
Ag         Ag      0.87627   0.01712   0.16858   0.36726
Ag         Ag      0.01702   0.87616   0.66865   0.36710
H          H       0.78770   0.84316   0.44755   0.06150
H          H       0.70569   0.92338   0.33876   0.10257
H          H       0.18878   0.96874   0.49786   0.10116
H          H       0.10649   0.04851   0.38860   0.06047
H          H       0.52972   0.48069   0.39241   0.09490
H          H       0.35081   0.41358   0.43424   0.09576
H          H       0.91041   0.12472   0.43617   0.07430
H          H       0.86388   0.08942   0.57183   0.08919
H          H       0.22902   0.14758   0.70460   0.09569
H          H       0.09209   0.19692   0.73969   0.08047
H          H       0.03050   0.80226   0.26511   0.08897
H          H       0.98345   0.76742   0.40076   0.07426
H          H       0.66698   0.74667   0.12894   0.09677
H          H       0.80454   0.69556   0.09748   0.08114
H          H       0.87677   0.52313   0.17000   0.10232
H          H       0.01505   0.36804   0.66960   0.10225
H          H       0.56329   0.65947   0.28774   0.09873
H          H       0.66737   0.32351   0.38710   0.10743
H          H       0.32572   0.23599   0.54151   0.09793
H          H       0.20934   0.56710   0.44236   0.10639
H          H       0.84315   0.78769   0.94756   0.06139
H          H       0.92341   0.70584   0.83903   0.10200
H          H       0.96867   0.18859  -0.00242   0.10127
H          H       0.04850   0.10652   0.88856   0.06017
H          H       0.48084   0.52952   0.89243   0.09515
H          H       0.41347   0.35087   0.93415   0.09600
H          H       0.12479   0.91047   0.93643   0.07435
H          H       0.08961   0.86388   0.07214   0.08925
H          H       0.14756   0.22881   0.20438   0.09598
H          H       0.19716   0.09209   0.23988   0.08024
H          H       0.80202   0.03047   0.76480   0.08916
H          H       0.76737   0.98333   0.90051   0.07411
H          H       0.74669   0.66717   0.62912   0.09637
H          H       0.69531   0.80451   0.59725   0.08105
H          H       0.52309   0.87685   0.66996   0.10230
H          H       0.36808   0.01495   0.16973   0.10248
H          H       0.65947   0.56315   0.78774   0.09836
H          H       0.32370   0.66726   0.88710   0.10737
H          H       0.23597   0.32575   0.04138   0.09793
H          H       0.56695   0.20932   0.94244   0.10652
C          C       0.80394   0.91215   0.39012  -0.10480
C          C       0.09045   0.97984   0.44640  -0.10315
C          C       0.72664   0.60638   0.22690   0.08855
C          C       0.16406   0.28676   0.60757   0.08861
C          C       0.60657   0.49042   0.34479  -0.07646
C          C       0.10343   0.48071   0.55883   0.02595
C          C       0.27636   0.40294   0.48461  -0.07971
C          C       0.90243   0.05076   0.48965  -0.10350
C          C       0.13544   0.16987   0.65902  -0.13389
C          C       0.99179   0.84121   0.34706  -0.10370
C          C       0.78104   0.41033   0.27625   0.02566
C          C       0.75919   0.72323   0.17637  -0.13517
C          C       0.80092   0.51454   0.21907  -0.19195
C          C       0.08837   0.37730   0.61765  -0.19395
C          C       0.62569   0.59193   0.28662  -0.17123
C          C       0.85741   0.32000   0.26709   0.21845
C          C       0.68343   0.40194   0.34231  -0.12668
C          C       0.26190   0.30208   0.54426  -0.17145
C          C       0.02613   0.57007   0.56903   0.21744
C          C       0.19770   0.48962   0.48896  -0.12302
C          C       0.91218   0.80401   0.89026  -0.10423
C          C       0.97979   0.09036   0.94624  -0.10269
C          C       0.60631   0.72658   0.72682   0.08857
C          C       0.28682   0.16407   0.10762   0.08854
C          C       0.49051   0.60641   0.84477  -0.07739
C          C       0.48065   0.10338   0.05893   0.02581
C          C       0.40287   0.27640   0.98459  -0.08018
C          C       0.05086   0.90245   0.98986  -0.10369
C          C       0.16998   0.13536   0.15904  -0.13370
C          C       0.84110   0.99174   0.84683  -0.10349
C          C       0.41037   0.78099   0.77618   0.02559
C          C       0.72311   0.75924   0.67632  -0.13452
C          C       0.51450   0.80092   0.71900  -0.19182
C          C       0.37732   0.08831   0.11775  -0.19394
C          C       0.59194   0.62558   0.78659  -0.17094
C          C       0.32009   0.85742   0.76710   0.21804
C          C       0.40207   0.68331   0.84228  -0.12603
C          C       0.30207   0.26192   0.04422  -0.17126
C          C       0.56998   0.02602   0.06908   0.21708
C          C       0.48952   0.19770   0.98901  -0.12293
N          N       0.85715   0.85411   0.28294  -0.07727
N          N       0.03743   0.03837   0.55356  -0.07754
N          N       0.96096   0.64586   0.58080  -0.43583
N          N       0.92377   0.24532   0.25608  -0.43503
N          N       0.85405   0.85723   0.78290  -0.07706
N          N       0.03841   0.03732   0.05356  -0.07788
N          N       0.64586   0.96088   0.08075  -0.43555
N          N       0.24534   0.92378   0.75617  -0.43466

