data_crystal

_audit_creation_method 'AiiDA-DDEC plugin'

_cell_length_a        10.57542
_cell_length_b        10.57323
_cell_length_c        11.40211

_cell_angle_alpha     73.50239
_cell_angle_beta     73.52201
_cell_angle_gamma     66.94606

_symmetry_space_group_name_Hall 'P 1'
_symmetry_space_group_name_H-M  'P 1'

loop_
_symmetry_equiv_pos_as_xyz
 'x,y,z'

loop_
_atom_site_label
_atom_site_type_symbol
_atom_site_fract_x
_atom_site_fract_y
_atom_site_fract_z
_atom_site_charge
Na         Na     -0.00004   0.99385   0.50273   0.91208
Na         Na      0.00613  -0.00019   0.00019   0.91256
Cu         Cu      0.87000   0.13036   0.74989   1.10478
Cu         Cu      0.13744   0.86201   0.25117   1.03755
H          H       0.23561   0.12531   0.85153   0.12073
H          H       0.46833   0.14516   0.82863   0.13247
H          H       0.54256   0.17565   0.43256   0.12708
H          H       0.30701   0.15891   0.45350   0.11217
H          H       0.87475   0.76478   0.64929   0.12003
H          H       0.85481   0.53225   0.67187   0.13276
H          H       0.82430   0.45694   0.06782   0.12793
H          H       0.84117   0.69223   0.04757   0.11206
H          H       0.77028   0.87691   0.14711   0.11380
H          H       0.53884   0.85878   0.16220   0.13215
H          H       0.45224   0.82400   0.55980   0.12988
H          H       0.68605   0.84137   0.54568   0.11839
H          H       0.12315   0.22903   0.35396   0.11352
H          H       0.14111   0.46052   0.33921   0.13033
H          H       0.17593   0.54764   0.94140   0.12922
H          H       0.15882   0.31388   0.95533   0.11855
C          C       0.25688   0.14066   0.65396  -0.03146
C          C       0.30202   0.13758   0.75984  -0.09326
C          C       0.43206   0.14836   0.74734  -0.09141
C          C       0.51899   0.16114   0.62912  -0.01039
C          C       0.47307   0.16683   0.52309  -0.09325
C          C       0.34192   0.15733   0.53507  -0.09016
C          C       0.11785   0.12767   0.67414   0.58326
C          C       0.66461   0.15818   0.61916   0.57598
C          C       0.85943   0.74320   0.84694  -0.03283
C          C       0.86246   0.69830   0.74096  -0.09210
C          C       0.85168   0.56832   0.75322  -0.09150
C          C       0.83892   0.48101   0.87118  -0.01165
C          C       0.83326   0.52662   0.97739  -0.09295
C          C       0.84273   0.65779   0.96574  -0.09013
C          C       0.87240   0.88243   0.82631   0.58633
C          C       0.84205   0.33558   0.88004   0.57702
C          C       0.74356   0.85827   0.34613  -0.02135
C          C       0.70186   0.86394   0.23765  -0.09673
C          C       0.57190   0.85451   0.24561  -0.09402
C          C       0.48167   0.84090   0.36204  -0.01271
C          C       0.52374   0.83374   0.47056  -0.09080
C          C       0.65381   0.84325   0.46256  -0.08273
C          C       0.88315   0.86492   0.34090   0.57958
C          C       0.33622   0.84297   0.37191   0.57454
C          C       0.14204   0.25604   0.15500  -0.02460
C          C       0.13614   0.29768   0.26354  -0.09547
C          C       0.14536   0.42770   0.25570  -0.09119
C          C       0.15889   0.51807   0.13932  -0.01293
C          C       0.16617   0.47613   0.03069  -0.09155
C          C       0.15687   0.34595   0.03858  -0.08131
C          C       0.13554   0.11635   0.16033   0.58169
C          C       0.15686   0.66336   0.12988   0.57382
O          O       0.06436   0.07543   0.78502  -0.58949
O          O       0.04444   0.17038   0.58967  -0.54292
O          O       0.75712   0.13183   0.52430  -0.58479
O          O       0.68299   0.18078   0.71868  -0.53822
O          O       0.92432   0.93584   0.71526  -0.59383
O          O       0.82972   0.95645   0.91022  -0.54242
O          O       0.86839   0.24225   0.97446  -0.58550
O          O       0.81946   0.31776   0.78030  -0.53782
O          O       0.95085   0.90594   0.22883  -0.55711
O          O       0.93546   0.83207   0.43527  -0.58874
O          O       0.24380   0.86760   0.46622  -0.58569
O          O       0.32125   0.81829   0.27048  -0.48742
O          O       0.09431   0.04889   0.27251  -0.55662
O          O       0.16869   0.06397   0.06602  -0.59040
O          O       0.13265   0.75603   0.03558  -0.58548
O          O       0.18105   0.67809   0.23160  -0.48737

