data_crystal

_audit_creation_method 'AiiDA-DDEC plugin'

_cell_length_a         4.49806
_cell_length_b         9.73845
_cell_length_c        12.08526

_cell_angle_alpha     106.51993
_cell_angle_beta     107.25272
_cell_angle_gamma     88.10816

_symmetry_space_group_name_Hall 'P 1'
_symmetry_space_group_name_H-M  'P 1'

loop_
_symmetry_equiv_pos_as_xyz
 'x,y,z'

loop_
_atom_site_label
_atom_site_type_symbol
_atom_site_fract_x
_atom_site_fract_y
_atom_site_fract_z
_atom_site_charge
Mn         Mn      0.00099  -0.00288   0.00300   0.86942
H          H       0.08813   0.27615   0.85710   0.10631
H          H       0.34714   0.50789   0.87904   0.11693
H          H       0.31901   0.84310   0.78929   0.10064
H          H       0.35454   0.84114   0.58970   0.11724
H          H       0.59323   0.11407   0.76765   0.08630
H          H       0.60168   0.12855   0.56702   0.11831
H          H       0.91421   0.71956   0.14976   0.10682
H          H       0.65526   0.48784   0.12787   0.11698
H          H       0.68161   0.15194   0.21612   0.10021
H          H       0.64806   0.15550   0.41625   0.11730
H          H       0.40958   0.88223   0.23864   0.08611
H          H       0.40262   0.86901   0.43972   0.11814
C          C       0.05598   0.37261   0.92331  -0.19803
C          C       0.50563   0.20457   0.01689   0.42316
C          C       0.21508   0.50150   0.93954  -0.16193
C          C       0.99053   0.99337   0.56118   0.06791
C          C       0.85139   0.36608   0.98891   0.22573
C          C       0.15612   0.90191   0.73582   0.09524
C          C       0.19606   0.91173   0.62771  -0.16730
C          C       0.73886   0.04605   0.72017   0.08478
C          C       0.76481   0.06206   0.61119  -0.18581
C          C       0.94689   0.62305   0.08370  -0.20027
C          C       0.49620   0.79036   0.98904   0.42393
C          C       0.78779   0.49414   0.06750  -0.15980
C          C       0.01286   0.00366   0.44523   0.06541
C          C       0.15115   0.62957   0.01798   0.22763
C          C       0.84562   0.09389   0.26996   0.09649
C          C       0.80677   0.08485   0.37843  -0.16640
C          C       0.26382   0.95035   0.28598   0.08269
C          C       0.23868   0.93500   0.39527  -0.18462
N          N       0.94012   0.96914   0.78425  -0.23755
N          N       0.34361   0.14659   0.05551  -0.63451
N          N       0.71594   0.23315   0.97440  -0.39291
N          N       0.06146   0.02651   0.22151  -0.23662
N          N       0.65826   0.84755   0.94990  -0.63338
N          N       0.28582   0.76251   0.03183  -0.39455

