data_crystal

_audit_creation_method 'AiiDA-DDEC plugin'

_cell_length_a         5.38804
_cell_length_b        10.64999
_cell_length_c        12.90265

_cell_angle_alpha     89.99719
_cell_angle_beta     89.98195
_cell_angle_gamma     91.11469

_symmetry_space_group_name_Hall 'P 1'
_symmetry_space_group_name_H-M  'P 1'

loop_
_symmetry_equiv_pos_as_xyz
 'x,y,z'

loop_
_atom_site_label
_atom_site_type_symbol
_atom_site_fract_x
_atom_site_fract_y
_atom_site_fract_z
_atom_site_charge
Co         Co      0.83691   0.73706   0.25378   0.81810
Co         Co      0.33812   0.23717   0.74598   0.81709
H          H       0.20654   0.88456   0.50089   0.12623
H          H       0.81021   0.09045   0.98271   0.12968
H          H       0.85715   0.12373   0.49074   0.13303
H          H       0.38868   0.76057   0.35561   0.11126
H          H       0.66660   0.97878   0.14481   0.08838
H          H       0.27547   0.74596   0.13530   0.10858
H          H       0.01278   0.99416   0.34101   0.08715
H          H       0.45861   0.86111   0.98392   0.12663
H          H       0.70746   0.38386   0.49948   0.12602
H          H       0.30970   0.58972   0.01718   0.13107
H          H       0.35800   0.62322   0.50947   0.13306
H          H       0.88884   0.26027   0.64434   0.11165
H          H       0.16703   0.47866   0.85496   0.08805
H          H       0.77550   0.24576   0.86443   0.10837
H          H       0.51316   0.49376   0.65900   0.08644
H          H       0.95835   0.36033   0.01586   0.12651
C          C       0.15204   0.99200   0.97579   0.01779
C          C       0.37956   0.91420   0.46529  -0.13855
C          C       0.92276   0.01944   0.01881  -0.13001
C          C       0.74635   0.04736   0.45923  -0.12501
C          C       0.41171   0.09600   0.58889   0.54700
C          C       0.48227   0.84337   0.38636   0.06455
C          C       0.51274   0.01978   0.50181   0.01525
C          C       0.83674   0.95403   0.10575   0.07207
C          C       0.18398   0.82610   0.10111   0.06411
C          C       0.83637   0.97406   0.37841   0.07077
C          C       0.28527   0.89075   0.01716  -0.14155
C          C       0.25162   0.06996   0.88667   0.54108
C          C       0.65197   0.49177   0.02400   0.01810
C          C       0.88000   0.41423   0.53488  -0.14006
C          C       0.42264   0.51912   0.98099  -0.13140
C          C       0.24642   0.54716   0.54106  -0.12596
C          C       0.91029   0.59629   0.41130   0.54792
C          C       0.98243   0.34328   0.61381   0.06478
C          C       0.01322   0.51984   0.49835   0.01560
C          C       0.33715   0.45374   0.89386   0.07322
C          C       0.68424   0.32598   0.89856   0.06397
C          C       0.33641   0.47371   0.62178   0.07196
C          C       0.78513   0.39061   0.98267  -0.14021
C          C       0.75085   0.57044   0.11271   0.54049
N          N       0.96591   0.85583   0.14449  -0.25497
N          N       0.70366   0.87221   0.34396  -0.25769
N          N       0.46591   0.35541   0.85533  -0.25485
N          N       0.20416   0.37160   0.65599  -0.25795
O          O       0.10087   0.14833   0.84541  -0.52669
O          O       0.46814   0.05757   0.85378  -0.51210
O          O       0.56351   0.17027   0.63693  -0.52233
O          O       0.18920   0.08408   0.61496  -0.51299
O          O       0.59988   0.64829   0.15471  -0.52627
O          O       0.96811   0.55955   0.14516  -0.51192
O          O       0.06262   0.67088   0.36326  -0.52624
O          O       0.68954   0.58418   0.38523  -0.50924

