data_crystal

_audit_creation_method 'AiiDA-DDEC plugin'

_cell_length_a         4.14147
_cell_length_b        12.21642
_cell_length_c        14.66996

_cell_angle_alpha     66.32208
_cell_angle_beta     102.55551
_cell_angle_gamma     85.95321

_symmetry_space_group_name_Hall 'P 1'
_symmetry_space_group_name_H-M  'P 1'

loop_
_symmetry_equiv_pos_as_xyz
 'x,y,z'

loop_
_atom_site_label
_atom_site_type_symbol
_atom_site_fract_x
_atom_site_fract_y
_atom_site_fract_z
_atom_site_charge
Nd         Nd      0.24916   0.64854   0.69698   1.82499
Nd         Nd      0.74027   0.34895   0.30513   1.82621
H          H       0.77809   0.93498   0.65186   0.13464
H          H       0.81727   0.41266   0.91691   0.13299
H          H       0.37416   0.64409   0.46566   0.12266
H          H       0.20847   0.06347   0.34915   0.13411
H          H       0.17528   0.58328   0.08448   0.13166
H          H       0.62200   0.35071   0.53900   0.12202
C          C       0.23722   0.92060   0.49937   0.07733
C          C       0.88250   0.96379   0.58541   0.11471
C          C       0.22097   0.58296   0.94026   0.08775
C          C       0.66941   0.45070   0.95376   0.10344
C          C       0.89735   0.46933   0.58876   0.10495
C          C       0.20961   0.57737   0.48373   0.07082
C          C       0.52472   0.83889   0.49898   0.51536
C          C       0.89795   0.66949   0.87732   0.52006
C          C       0.74480   0.44539   0.67654   0.51778
C          C       0.75199   0.07854   0.50187   0.07793
C          C       0.10576   0.03511   0.41583   0.11557
C          C       0.77258   0.41379   0.06116   0.09193
C          C       0.32391   0.54587   0.04753   0.10502
C          C       0.09625   0.52624   0.41477   0.10610
C          C       0.78516   0.41786   0.52004   0.06876
C          C       0.46325   0.16012   0.50140   0.51527
C          C       0.09640   0.32795   0.12423   0.51788
C          C       0.24515   0.55038   0.32636   0.51439
N          N       0.11931   0.88529   0.58374  -0.30559
N          N       0.39628   0.53444   0.89427  -0.30945
N          N       0.10083   0.55118   0.56880  -0.29437
N          N       0.86917   0.11370   0.41745  -0.30695
N          N       0.59755   0.46249   0.10706  -0.30799
N          N       0.89194   0.44456   0.43464  -0.29255
O          O       0.62627   0.73859   0.58517  -0.68958
O          O       0.82513   0.69361   0.77841  -0.67409
O          O       0.80453   0.51525   0.72474  -0.67553
O          O       0.54599   0.37316   0.68988  -0.45182
O          O       0.65431   0.87089   0.42633  -0.46550
O          O       0.71587   0.70364   0.92045  -0.46300
O          O       0.35966   0.25996   0.41511  -0.68760
O          O       0.17160   0.30449   0.22298  -0.67308
O          O       0.17868   0.48256   0.27680  -0.67293
O          O       0.44959   0.62105   0.31373  -0.45121
O          O       0.33266   0.12803   0.57407  -0.46805
O          O       0.27836   0.29430   0.08063  -0.46505

