data_crystal

_audit_creation_method 'AiiDA-DDEC plugin'

_cell_length_a        11.72883
_cell_length_b        11.76714
_cell_length_c        11.89647

_cell_angle_alpha     65.30313
_cell_angle_beta     80.11565
_cell_angle_gamma     72.31253

_symmetry_space_group_name_Hall 'P 1'
_symmetry_space_group_name_H-M  'P 1'

loop_
_symmetry_equiv_pos_as_xyz
 'x,y,z'

loop_
_atom_site_label
_atom_site_type_symbol
_atom_site_fract_x
_atom_site_fract_y
_atom_site_fract_z
_atom_site_charge
Mn         Mn     -0.00082   0.00135  -0.00012   0.82201
Mn         Mn      0.00014   0.49962   0.50055   0.81464
Mn         Mn     -0.00012  -0.00045   0.50039   0.98011
H          H       0.25771   0.80229   0.04214   0.09734
H          H       0.47032   0.79332   0.04157   0.11062
H          H       0.35747   0.20396   0.96930   0.11214
H          H       0.15026   0.19441   0.97146   0.09824
H          H       0.76971   0.46131   0.67160   0.09667
H          H       0.55051   0.56142   0.67049   0.12348
H          H       0.58820   0.72842   0.27032   0.11028
H          H       0.80622   0.62231   0.28871   0.09896
H          H       0.36506   0.58722   0.64088   0.11153
H          H       0.15562   0.72291   0.63797   0.11195
H          H       0.22214   0.00426   0.29938   0.10241
H          H       0.43514   0.88350   0.28855   0.11908
H          H       0.74114   0.19913   0.95666   0.09660
H          H       0.52883   0.20695   0.95855   0.10974
H          H       0.64283   0.79619   0.03138   0.11141
H          H       0.85008   0.80689   0.02753   0.09919
H          H       0.22999   0.53845   0.32889   0.09669
H          H       0.44920   0.43873   0.32964   0.12340
H          H       0.41207   0.27147   0.72988   0.11032
H          H       0.19410   0.37747   0.71184   0.09574
H          H       0.63520   0.41290   0.35933   0.11133
H          H       0.84427   0.27634   0.36175   0.11192
H          H       0.77755   0.99535   0.70049   0.10292
H          H       0.56482   0.11674   0.71166   0.11861
C          C       0.98243   0.88716   0.27022  -0.03891
C          C       0.97709   0.77917   0.37941  -0.03814
C          C       0.96348   0.02819   0.23458   0.57142
C          C       0.94784   0.75329   0.51303   0.56598
C          C       0.28435   0.88929   0.02536   0.07606
C          C       0.40370   0.88532   0.02511  -0.20358
C          C       0.43762  -0.00066   0.00235   0.06880
C          C       0.34139   0.11229   0.98433  -0.20348
C          C       0.22443   0.10799   0.98577   0.08051
C          C       0.72563   0.51978   0.58452   0.09663
C          C       0.60279   0.57553   0.58314  -0.17749
C          C       0.54857   0.65492   0.46964   0.09917
C          C       0.62389   0.66976   0.36155  -0.18557
C          C       0.74599   0.61029   0.37104   0.08527
C          C       0.42062   0.72454   0.46593   0.08726
C          C       0.33826   0.67979   0.56388  -0.17760
C          C       0.22068   0.75398   0.56230   0.09640
C          C       0.25760   0.91113   0.37287   0.09926
C          C       0.37671   0.84256   0.36730  -0.18180
C          C       0.01811   0.11218   0.72970  -0.03760
C          C       0.02309   0.22021   0.62056  -0.03683
C          C       0.03690   0.97115   0.76560   0.57140
C          C       0.05221   0.24618   0.48680   0.56570
C          C       0.71494   0.11181   0.97373   0.07529
C          C       0.59568   0.11512   0.97493  -0.20364
C          C       0.56216   0.00071  -0.00192   0.06844
C          C       0.65866   0.88807   0.01602  -0.20016
C          C       0.77562   0.89303   0.01349   0.07914
C          C       0.27421   0.48007   0.41589   0.09623
C          C       0.39708   0.42451   0.41710  -0.17660
C          C       0.45150   0.34518   0.53049   0.09757
C          C       0.37627   0.33014   0.63871  -0.18521
C          C       0.25419   0.38952   0.62940   0.08621
C          C       0.57941   0.27555   0.53414   0.08725
C          C       0.66184   0.32019   0.43621  -0.17700
C          C       0.77921   0.24554   0.43753   0.09534
C          C       0.74217   0.08854   0.62703   0.09816
C          C       0.62325   0.15751   0.63282  -0.18121
N          N       0.01251   0.84308   0.17672  -0.19724
N          N       0.02588   0.71509   0.22248  -0.06755
N          N       0.00403   0.67618   0.34540  -0.20324
N          N       0.19402  -0.00126   0.00473  -0.26826
N          N       0.79778   0.53683   0.48055  -0.24471
N          N       0.18023   0.86918   0.46907  -0.25163
N          N       0.98855   0.15609   0.82324  -0.19387
N          N       0.97502   0.28409   0.77776  -0.06728
N          N       0.99632   0.32311   0.65477  -0.20249
N          N       0.80567   0.00283   0.99360  -0.26844
N          N       0.20219   0.46303   0.52001  -0.24458
N          N       0.81938   0.13002   0.53050  -0.25174
O          O       0.95429   0.09850   0.11835  -0.50720
O          O       0.95880   0.07472   0.31437  -0.52787
O          O       0.94839   0.63574   0.58377  -0.51508
O          O       0.92437   0.84356   0.55204  -0.53429
O          O       0.04579   0.90111   0.88158  -0.51077
O          O       0.04157   0.92505   0.68526  -0.53097
O          O       0.05154   0.36376   0.41628  -0.51773
O          O       0.07574   0.15579   0.44797  -0.53505

