data_crystal

_audit_creation_method 'AiiDA-DDEC plugin'

_cell_length_a         9.97454
_cell_length_b         9.74193
_cell_length_c        11.20598

_cell_angle_alpha     74.14115
_cell_angle_beta     88.87832
_cell_angle_gamma     68.59972

_symmetry_space_group_name_Hall 'P 1'
_symmetry_space_group_name_H-M  'P 1'

loop_
_symmetry_equiv_pos_as_xyz
 'x,y,z'

loop_
_atom_site_label
_atom_site_type_symbol
_atom_site_fract_x
_atom_site_fract_y
_atom_site_fract_z
_atom_site_charge
La         La      0.02590   0.20322   0.96916   1.95007
La         La      0.97409   0.79678   0.03084   1.95006
H          H       0.53457   0.82838   0.98653   0.14055
H          H       0.66967   0.42551   0.85335   0.12744
H          H       0.22768   0.73785   0.78359   0.13601
H          H       0.45399   0.70684   0.56571   0.13204
H          H       0.32901   0.80426   0.34954   0.12386
H          H       0.11756   0.48011   0.45583   0.12896
H          H       0.28691   0.32922   0.77596   0.28842
H          H       0.15438   0.33303   0.68190   0.29918
H          H       0.46543   0.17162   0.01347   0.14060
H          H       0.33033   0.57449   0.14665   0.12743
H          H       0.77232   0.26215   0.21641   0.13600
H          H       0.54601   0.29316   0.43429   0.13212
H          H       0.67099   0.19573   0.65046   0.12388
H          H       0.88244   0.51989   0.54417   0.12891
H          H       0.71309   0.67078   0.22404   0.28847
H          H       0.84562   0.66697   0.31810   0.29917
C          C       0.25069   0.92549   0.91734   0.60824
C          C       0.36870   0.79562   0.88919  -0.02236
C          C       0.51099   0.75723   0.93671  -0.10267
C          C       0.62006   0.62345   0.92415  -0.03639
C          C       0.77045   0.57364   0.98158   0.65137
C          C       0.58792   0.53231   0.86045  -0.18311
C          C       0.44836   0.57731   0.80692   0.24492
C          C       0.33734   0.70744   0.82182  -0.18480
C          C       0.35374   0.54176   0.62881   0.15064
C          C       0.37877   0.65988   0.54044  -0.19988
C          C       0.30895   0.71459   0.42073  -0.10555
C          C       0.21196   0.65134   0.39209  -0.05746
C          C       0.13210   0.71043   0.26816   0.56953
C          C       0.19050   0.52983   0.48090  -0.20766
C          C       0.26313   0.47007   0.60036   0.19928
C          C       0.74931   0.07451   0.08266   0.60833
C          C       0.63130   0.20438   0.11081  -0.02234
C          C       0.48901   0.24277   0.06329  -0.10265
C          C       0.37993   0.37655   0.07585  -0.03640
C          C       0.22954   0.42635   0.01842   0.65138
C          C       0.41208   0.46769   0.13955  -0.18308
C          C       0.55164   0.42268   0.19308   0.24483
C          C       0.66266   0.29256   0.17818  -0.18480
C          C       0.64626   0.45824   0.37119   0.15064
C          C       0.62123   0.34011   0.45956  -0.19985
C          C       0.69105   0.28541   0.57927  -0.10549
C          C       0.78804   0.34866   0.60791  -0.05751
C          C       0.86789   0.28957   0.73184   0.56952
C          C       0.80950   0.47017   0.51911  -0.20766
C          C       0.73687   0.52993   0.39964   0.19932
N          N       0.25215   0.34366   0.68701  -0.60891
N          N       0.74785   0.65634   0.31299  -0.60903
O          O       0.11642   0.93673   0.90446  -0.72183
O          O       0.27942   0.02404   0.95448  -0.56625
O          O       0.85396   0.43311  -0.00028  -0.66454
O          O       0.80690   0.67305   0.01155  -0.64532
O          O       0.42089   0.47956   0.74949  -0.19550
O          O       0.16607   0.79967   0.17631  -0.62049
O          O       0.02641   0.66758   0.25040  -0.62781
O          O       0.88357   0.06327   0.09554  -0.72197
O          O       0.72057   0.97596   0.04552  -0.56619
O          O       0.14603   0.56689   0.00028  -0.66458
O          O       0.19310   0.32694   0.98845  -0.64526
O          O       0.57911   0.52044   0.25051  -0.19555
O          O       0.83393   0.20033   0.82369  -0.62040
O          O       0.97359   0.33242   0.74960  -0.62788

