data_crystal

_audit_creation_method 'AiiDA-DDEC plugin'

_cell_length_a         9.66129
_cell_length_b        12.46876
_cell_length_c        12.61937

_cell_angle_alpha     105.67905
_cell_angle_beta     111.39635
_cell_angle_gamma     108.03674

_symmetry_space_group_name_Hall 'P 1'
_symmetry_space_group_name_H-M  'P 1'

loop_
_symmetry_equiv_pos_as_xyz
 'x,y,z'

loop_
_atom_site_label
_atom_site_type_symbol
_atom_site_fract_x
_atom_site_fract_y
_atom_site_fract_z
_atom_site_charge
Mn         Mn      0.24034   0.32553   0.14577   1.04371
Mn         Mn      0.75966   0.67447   0.85423   1.04373
Mn         Mn      0.00000   0.00000   0.00000   1.12384
Mn         Mn      0.00000   0.50000   0.00000   1.15065
H          H       0.48366   0.36609   0.51990   0.13063
H          H       0.56800   0.15147   0.73117   0.09850
H          H       0.34433   0.95556   0.54004   0.10823
H          H       0.19463   0.96619   0.33685   0.12102
H          H       0.70937   0.01391   0.84601   0.10455
H          H       0.40681   0.87451   0.75045   0.11465
H          H       0.23550   0.95261   0.82713   0.12105
H          H       0.66081   0.31356   0.07122   0.12747
H          H       0.51634   0.63391   0.48010   0.13057
H          H       0.43200   0.84853   0.26883   0.09850
H          H       0.65567   0.04444   0.45997   0.10828
H          H       0.80538   0.03382   0.66315   0.12110
H          H       0.29063   0.98610   0.15400   0.10457
H          H       0.59319   0.12550   0.24956   0.11471
H          H       0.76451   0.04739   0.17287   0.12116
H          H       0.33919   0.68644   0.92878   0.12743
C          C       0.24908   0.17214   0.29348   0.59395
C          C       0.33295   0.16639   0.41591  -0.05852
C          C       0.45493   0.27665   0.52465  -0.09928
C          C       0.53993   0.27100   0.63808  -0.05528
C          C       0.50082   0.15481   0.64282  -0.08027
C          C       0.37509   0.04523   0.53546  -0.09038
C          C       0.29169   0.05060   0.42200  -0.07855
C          C       0.88728   0.25218   0.02457   0.60298
C          C       0.70566   0.17135   0.96651  -0.04513
C          C       0.63271   0.04760   0.87583  -0.08260
C          C       0.46268   0.96978   0.82195  -0.08739
C          C       0.36634   0.01329   0.86282  -0.06935
C          C       0.43783   0.13703   0.95330  -0.04862
C          C       0.60639   0.21749   0.00221  -0.09599
C          C       0.66850   0.38895   0.75369   0.62325
C          C       0.33458   0.17622   0.00311   0.59989
C          C       0.75093   0.82786   0.70652   0.59384
C          C       0.66706   0.83362   0.58409  -0.05840
C          C       0.54507   0.72335   0.47535  -0.09932
C          C       0.46008   0.72900   0.36192  -0.05523
C          C       0.49919   0.84519   0.35718  -0.08043
C          C       0.62491   0.95478   0.46454  -0.09029
C          C       0.70831   0.94940   0.57800  -0.07859
C          C       0.11273   0.74782   0.97543   0.60303
C          C       0.29435   0.82866   0.03349  -0.04514
C          C       0.36729   0.95241   0.12417  -0.08264
C          C       0.53732   0.03022   0.17805  -0.08715
C          C       0.63366   0.98671   0.13718  -0.06957
C          C       0.56217   0.86297   0.04671  -0.04845
C          C       0.39361   0.78252  -0.00221  -0.09614
C          C       0.33150   0.61106   0.24631   0.62323
C          C       0.66543   0.82378   0.99689   0.59983
O          O       0.29708   0.28006   0.29311  -0.56177
O          O       0.13729   0.06967   0.19743  -0.57834
O          O       0.98485   0.20034   0.02623  -0.58588
O          O       0.94670   0.37136   0.07391  -0.59893
O          O       0.77878   0.38129   0.84262  -0.59934
O          O       0.65835   0.48892   0.75682  -0.55671
O          O       0.38311   0.29288   0.06575  -0.55758
O          O       0.20290   0.08930   0.98287  -0.59726
O          O       0.70292   0.71994   0.70690  -0.56185
O          O       0.86271   0.93033   0.80257  -0.57819
O          O       0.01515   0.79966   0.97377  -0.58584
O          O       0.05330   0.62865   0.92609  -0.59905
O          O       0.22122   0.61872   0.15738  -0.59933
O          O       0.34165   0.51108   0.24318  -0.55671
O          O       0.61689   0.70712   0.93425  -0.55773
O          O       0.79710   0.91070   0.01714  -0.59712

