data_crystal

_audit_creation_method 'AiiDA-DDEC plugin'

_cell_length_a         9.16304
_cell_length_b         9.07774
_cell_length_c        15.06717

_cell_angle_alpha     81.82162
_cell_angle_beta     86.85622
_cell_angle_gamma     59.93437

_symmetry_space_group_name_Hall 'P 1'
_symmetry_space_group_name_H-M  'P 1'

loop_
_symmetry_equiv_pos_as_xyz
 'x,y,z'

loop_
_atom_site_label
_atom_site_type_symbol
_atom_site_fract_x
_atom_site_fract_y
_atom_site_fract_z
_atom_site_charge
Co         Co      0.77256   0.01221   0.16511   0.94994
Co         Co      0.22791   0.98751   0.83383   0.97939
Co         Co      0.50088  -0.00019  -0.00034   1.17385
Co         Co      0.00203   0.50456   0.00271   0.81087
H          H       0.29467   0.62848   0.22500   0.06970
H          H       0.33078   0.82826   0.30195   0.09467
H          H       0.30030   0.96446   0.19977   0.12038
H          H       0.60952   0.62513   0.26549   0.07710
H          H       0.59498   0.48997   0.15681   0.10673
H          H       0.35065   0.59510   0.07346   0.10613
H          H       0.36163   0.25907   0.17852   0.14479
H          H       0.23136   0.45526   0.31965   0.14192
H          H       0.76836   0.19299   0.32911   0.12335
H          H       0.74666   0.39384   0.40066   0.13122
H          H       0.24621   0.48222   0.46570   0.13129
H          H       0.70665   0.37050   0.77378   0.06914
H          H       0.66741   0.17168   0.69775   0.09460
H          H       0.69846   0.03581   0.80022   0.11979
H          H       0.39042   0.37632   0.73548   0.07769
H          H       0.40494   0.50910   0.84509   0.10550
H          H       0.65214   0.40524   0.92527   0.10674
H          H       0.63873   0.74103   0.82129   0.14659
H          H       0.76869   0.54439   0.68032   0.14181
H          H       0.23144   0.80763   0.67094   0.12486
H          H       0.25296   0.60631   0.59940   0.13061
H          H       0.75364   0.51785   0.53431   0.13079
C          C       0.62696   0.83038   0.19201   0.58953
C          C       0.67816   0.61942   0.05756   0.60161
C          C       0.30512   0.84357   0.02044   0.62267
C          C       0.08012   0.84988   0.17262   0.57748
C          C       0.26905   0.74952   0.18378  -0.10229
C          C       0.35211   0.83040   0.22944  -0.19091
C          C       0.54234   0.72304   0.20851  -0.10882
C          C       0.55051   0.62375   0.12776  -0.13617
C          C       0.36587   0.69569   0.09614  -0.14149
C          C       0.42484   0.27404   0.23241   0.00075
C          C       0.36010   0.37157   0.30129  -0.11003
C          C       0.64049   0.23895   0.30691   0.08569
C          C       0.49670   0.42801   0.42424   0.15559
C          C       0.63912   0.43828   0.44462  -0.15708
C          C       0.35667   0.49117   0.47986  -0.14724
C          C       0.37337   0.16966   0.80749   0.59341
C          C       0.32588   0.37878   0.94454   0.60053
C          C       0.69838   0.15609   0.97915   0.61551
C          C       0.92055   0.14772   0.82591   0.57922
C          C       0.73176   0.24974   0.81512  -0.10191
C          C       0.64711   0.16962   0.77028  -0.18970
C          C       0.45767   0.27733   0.79198  -0.10930
C          C       0.45165   0.37449   0.87313  -0.13816
C          C       0.63718   0.30378   0.90327  -0.14081
C          C       0.57548   0.72544   0.76752   0.00040
C          C       0.63980   0.62862   0.69858  -0.10698
C          C       0.35954   0.76081   0.69312   0.08575
C          C       0.50311   0.57197   0.57580   0.15417
C          C       0.36059   0.56183   0.55544  -0.15749
C          C       0.64313   0.50893   0.52017  -0.14771
N          N       0.59942   0.19117   0.23764  -0.28741
N          N       0.49820   0.35027   0.34853   0.01254
N          N       0.40096   0.80929   0.76196  -0.29086
N          N       0.50173   0.64999   0.65132   0.01418
O          O       0.56965   0.96254   0.13042  -0.61726
O          O       0.75317   0.79666   0.23876  -0.53439
O          O       0.83213   0.49430   0.07303  -0.51625
O          O       0.64216   0.73139   0.98961  -0.57535
O          O       0.26839   0.82184   0.94537  -0.52748
O          O       0.29862   0.98218   0.03640  -0.59064
O          O       0.00877   0.81571   0.11522  -0.54852
O          O       0.99207   0.96282   0.22536  -0.56907
O          O       0.43156   0.03668   0.86857  -0.61538
O          O       0.24741   0.20310   0.76036  -0.53653
O          O       0.17481   0.50858   0.93167  -0.51320
O          O       0.36316   0.26411   0.01138  -0.57256
O          O       0.73400   0.17822   0.05436  -0.51779
O          O       0.70359   0.01778   0.96365  -0.59046
O          O       0.99244   0.18239   0.88286  -0.54027
O          O       0.00733   0.03361   0.77368  -0.56899

