data_crystal

_audit_creation_method 'AiiDA-DDEC plugin'

_cell_length_a        11.37552
_cell_length_b        11.32768
_cell_length_c        11.69878

_cell_angle_alpha     83.51463
_cell_angle_beta     83.29582
_cell_angle_gamma     80.43618

_symmetry_space_group_name_Hall 'P 1'
_symmetry_space_group_name_H-M  'P 1'

loop_
_symmetry_equiv_pos_as_xyz
 'x,y,z'

loop_
_atom_site_label
_atom_site_type_symbol
_atom_site_fract_x
_atom_site_fract_y
_atom_site_fract_z
_atom_site_charge
Fe         Fe      0.51567   0.28323   0.21442   0.73808
Fe         Fe      0.71356   0.47904   0.77995   0.73413
Fe         Fe      0.40099   0.50719   0.94107   0.62839
Co         Co      0.64375   0.36007   0.09688   0.28465
Co         Co      0.63983   0.35306   0.90178   0.30027
Co         Co      0.49719   0.59936   0.05991   0.61814
H          H       0.20459   0.16226   0.27978   0.16433
H          H       0.96345   0.15158   0.28052   0.16399
H          H       0.26035   0.72303   0.38394   0.15955
H          H       0.84112   0.79032   0.71471   0.16364
H          H       0.85123   0.03236   0.71589   0.16354
H          H       0.27754   0.74302   0.61344   0.15907
C          C       0.27678   0.35745   0.11442   0.53043
C          C       0.16358   0.31433   0.14971   0.06078
C          C       0.13934   0.21917   0.22939  -0.17261
C          C       0.01644   0.21353   0.22962  -0.16445
C          C       0.97214   0.30600   0.15086   0.09010
C          C       0.84977   0.34019   0.12128   0.48944
C          C       0.43825   0.51439   0.30224   0.52503
C          C       0.40736   0.57311   0.40899   0.07550
C          C       0.32189   0.66875   0.44014  -0.17383
C          C       0.64797   0.71659   0.88435   0.53939
C          C       0.69318   0.82936   0.84985   0.06007
C          C       0.78577   0.85473   0.76774  -0.16996
C          C       0.79127   0.97818   0.76828  -0.16548
C          C       0.70142   0.02145   0.85015   0.08840
C          C       0.66598   0.14465   0.87924   0.49352
C          C       0.48155   0.56075   0.69765   0.51404
C          C       0.42231   0.59015   0.59196   0.07165
C          C       0.33013   0.67846   0.55875  -0.17443
O          O       0.28076   0.44671   0.03526  -0.43329
O          O       0.36586   0.30038   0.16528  -0.44084
O          O       0.06138   0.36901   0.10130  -0.08152
O          O       0.80905   0.43397   0.05810  -0.43412
O          O       0.77602   0.26721   0.16602  -0.40977
O          O       0.41523   0.57753   0.20664  -0.47634
O          O       0.48775   0.40389   0.31382  -0.42526
O          O       0.56534   0.15591   0.27419  -0.35628
O          O       0.55846   0.71539   0.96250  -0.44976
O          O       0.70356   0.62593   0.83408  -0.44334
O          O       0.64071   0.93104   0.90156  -0.07739
O          O       0.57155   0.18461   0.94206  -0.43273
O          O       0.73752   0.21968   0.83429  -0.41786
O          O       0.42228   0.58949   0.79411  -0.45455
O          O       0.58995   0.50587   0.68579  -0.42857
O          O       0.83892   0.43262   0.71494  -0.35304
O          O       0.46973   0.52434   0.50117  -0.07346
O          O       0.54100   0.45262  -0.00092  -0.60722

