data_crystal

_audit_creation_method 'AiiDA-DDEC plugin'

_cell_length_a         8.07552
_cell_length_b         8.07776
_cell_length_c        15.35073

_cell_angle_alpha     90.30467
_cell_angle_beta     90.40151
_cell_angle_gamma     98.53357

_symmetry_space_group_name_Hall 'P 1'
_symmetry_space_group_name_H-M  'P 1'

loop_
_symmetry_equiv_pos_as_xyz
 'x,y,z'

loop_
_atom_site_label
_atom_site_type_symbol
_atom_site_fract_x
_atom_site_fract_y
_atom_site_fract_z
_atom_site_charge
Zn         Zn      0.99533   0.00378   0.75133   0.99011
Zn         Zn      0.00240  -0.00409   0.25119   0.99217
H          H       0.12070   0.23125   0.49466   0.16076
H          H       0.76465   0.87574   0.00833   0.16142
H          H       0.87940   0.76711   0.50786   0.16062
H          H       0.23158   0.12193   0.99287   0.16115
C          C       0.98272   0.58030   0.58137   0.02594
C          C       0.04501   0.42459   0.57769   0.05617
C          C       0.07538   0.35142   0.49728  -0.11889
C          C       0.97010   0.67751   0.66552   0.56054
C          C       0.07362   0.32656   0.65863   0.55908
C          C       0.41898   0.01805   0.92029   0.02902
C          C       0.57399   0.95494   0.92465   0.05616
C          C       0.64522   0.92250   0.00528  -0.11667
C          C       0.32270   0.03047   0.83593   0.56384
C          C       0.67392   0.92669   0.84445   0.56053
C          C       0.01865   0.41891   0.42125   0.02674
C          C       0.95633   0.57455   0.42500   0.05561
C          C       0.92569   0.64746   0.50538  -0.11636
C          C       0.03071   0.32283   0.33672   0.56380
C          C       0.92704   0.67372   0.34455   0.56026
C          C       0.57747   0.97981   0.08098   0.02628
C          C       0.42280   0.04411   0.07650   0.05473
C          C       0.35110   0.07536   0.99587  -0.12023
C          C       0.67296   0.96592   0.16571   0.56197
C          C       0.32342   0.07641   0.15623   0.56251
O          O       0.00773   0.83628   0.65856  -0.54052
O          O       0.91615   0.59176   0.72892  -0.36211
O          O       0.97537   0.19120   0.67090  -0.50874
O          O       0.20027   0.39198   0.69953  -0.32972
O          O       0.16489   0.98386   0.84135  -0.54016
O          O       0.40844   0.09259   0.77428  -0.36325
O          O       0.80971   0.02445   0.83288  -0.50953
O          O       0.60812   0.79981   0.80388  -0.33168
O          O       0.98393   0.16497   0.34169  -0.54059
O          O       0.09222   0.40877   0.27495  -0.36307
O          O       0.02431   0.80987   0.33266  -0.51106
O          O       0.79988   0.60791   0.30414  -0.33035
O          O       0.83220  -0.00045   0.15903  -0.54158
O          O       0.58467   0.91583   0.22886  -0.36337
O          O       0.18432   0.98339   0.16704  -0.51147
O          O       0.39228   0.20167   0.19692  -0.33006

