data_crystal

_audit_creation_method 'AiiDA-DDEC plugin'

_cell_length_a         7.92013
_cell_length_b        11.62031
_cell_length_c        11.62067

_cell_angle_alpha     72.77569
_cell_angle_beta     88.56751
_cell_angle_gamma     88.56884

_symmetry_space_group_name_Hall 'P 1'
_symmetry_space_group_name_H-M  'P 1'

loop_
_symmetry_equiv_pos_as_xyz
 'x,y,z'

loop_
_atom_site_label
_atom_site_type_symbol
_atom_site_fract_x
_atom_site_fract_y
_atom_site_fract_z
_atom_site_charge
La         La      0.25701   0.00795   0.97551   1.92842
La         La      0.75702   0.97551   0.00795   1.92851
H          H       0.63220   0.70680   0.86608   0.12364
H          H       0.68292   0.53919   0.91394   0.11818
H          H       0.79534   0.33121   0.98914   0.11527
H          H       0.06753   0.37114   0.65858   0.11994
H          H       0.09836   0.46210   0.48934   0.11370
H          H       0.17409   0.58993   0.28452   0.12210
H          H       0.88618   0.88278   0.34256   0.10753
H          H       0.73481   0.94483   0.44184   0.10979
H          H       0.55871   0.02902   0.57632   0.12036
H          H       0.13220   0.86609   0.70679   0.12380
H          H       0.18292   0.91395   0.53918   0.11814
H          H       0.29534   0.98915   0.33120   0.11536
H          H       0.56753   0.65859   0.37114   0.11993
H          H       0.59836   0.48934   0.46209   0.11378
H          H       0.67409   0.28452   0.58993   0.12207
H          H       0.38618   0.34257   0.88277   0.10749
H          H       0.23481   0.44184   0.94481   0.10965
H          H       0.05872   0.57632   0.02901   0.12036
C          C       0.48362   0.92298   0.81032   0.57494
C          C       0.58724   0.87148   0.72963  -0.04269
C          C       0.65404   0.75524   0.77182  -0.13263
C          C       0.74689   0.70187   0.69548   0.01673
C          C       0.80852   0.57761   0.73870   0.04660
C          C       0.76585   0.50406   0.85588  -0.11671
C          C       0.82855   0.38761   0.89919  -0.09477
C          C       0.93982   0.34143   0.82712  -0.04469
C          C       0.01960   0.22111   0.87585   0.58627
C          C       0.98078   0.41110   0.71046  -0.12048
C          C       0.91301   0.52831   0.66268   0.01795
C          C       0.94936   0.60010   0.53854   0.04447
C          C       0.04920   0.55393   0.45903  -0.13973
C          C       0.09203   0.62422   0.34383  -0.07698
C          C       0.03236   0.74409   0.30254  -0.03113
C          C       0.08828   0.82405   0.18383   0.57960
C          C       0.92841   0.78967   0.37746  -0.11131
C          C       0.88480   0.72063   0.49544   0.01725
C          C       0.78208   0.77211   0.57466   0.04473
C          C       0.71343   0.89053   0.53431  -0.13276
C          C       0.61446   0.93901   0.60863  -0.07240
C          C       0.98361   0.81033   0.92297   0.57479
C          C       0.08723   0.72964   0.87147  -0.04253
C          C       0.15404   0.77183   0.75523  -0.13264
C          C       0.24689   0.69548   0.70186   0.01680
C          C       0.30852   0.73871   0.57761   0.04657
C          C       0.26585   0.85589   0.50405  -0.11672
C          C       0.32855   0.89919   0.38760  -0.09466
C          C       0.43983   0.82712   0.34143  -0.04476
C          C       0.51960   0.87585   0.22111   0.58601
C          C       0.48078   0.71047   0.41110  -0.12042
C          C       0.41301   0.66269   0.52831   0.01801
C          C       0.44936   0.53855   0.60010   0.04431
C          C       0.54920   0.45903   0.55392  -0.13958
C          C       0.59203   0.34383   0.62422  -0.07712
C          C       0.53236   0.30255   0.74408  -0.03102
C          C       0.58828   0.18383   0.82405   0.57976
C          C       0.42841   0.37746   0.78967  -0.11147
C          C       0.38479   0.49544   0.72063   0.01740
C          C       0.28208   0.57467   0.77210   0.04462
C          C       0.21343   0.53431   0.89052  -0.13279
C          C       0.11446   0.60864   0.93900  -0.07262
O          O       0.51599   0.88950   0.92566  -0.69043
O          O       0.36444  -0.00277   0.77007  -0.54776
O          O       0.96174   0.14763   0.97606  -0.70254
O          O       0.14965   0.19347   0.82289  -0.56634
O          O       0.20801   0.79274   0.12460  -0.57102
O          O       0.01685   0.93085   0.14313  -0.71317
O          O       0.01599   0.92567   0.88949  -0.68996
O          O       0.86443   0.77008  -0.00278  -0.54795
O          O       0.46174   0.97607   0.14762  -0.70233
O          O       0.64966   0.82289   0.19347  -0.56624
O          O       0.70801   0.12460   0.79274  -0.57121
O          O       0.51685   0.14313   0.93084  -0.71329

