data_crystal

_audit_creation_method 'AiiDA-DDEC plugin'

_cell_length_a         5.86361
_cell_length_b        11.72049
_cell_length_c        16.93446

_cell_angle_alpha     89.98247
_cell_angle_beta     90.02166
_cell_angle_gamma     91.01638

_symmetry_space_group_name_Hall 'P 1'
_symmetry_space_group_name_H-M  'P 1'

loop_
_symmetry_equiv_pos_as_xyz
 'x,y,z'

loop_
_atom_site_label
_atom_site_type_symbol
_atom_site_fract_x
_atom_site_fract_y
_atom_site_fract_z
_atom_site_charge
Sr         Sr      0.72290   0.90906   0.99379   1.53142
Sr         Sr      0.77750   0.59018   0.49486   1.53190
Sr         Sr      0.27709   0.09094   0.00621   1.53144
Sr         Sr      0.22249   0.40981   0.50514   1.53197
H          H       0.09453   0.37495   0.69462   0.12741
H          H       0.14121   0.26686   0.83091   0.12252
H          H       0.40032   0.12547   0.19412   0.12664
H          H       0.35393   0.23190   0.33124   0.12365
H          H       0.90546   0.62505   0.30538   0.12754
H          H       0.85878   0.73314   0.16909   0.12255
H          H       0.59967   0.87453   0.80588   0.12656
H          H       0.64606   0.76810   0.66876   0.12354
C          C       0.78246   0.10457   0.87478   0.62035
C          C       0.81692   0.17971   0.80588  -0.14067
C          C      -0.00049   0.25368   0.79049  -0.11853
C          C       0.97585   0.31082   0.71749  -0.10876
C          C       0.77724   0.27864   0.67792  -0.13830
C          C       0.69165   0.32181   0.60159   0.64041
C          C       0.71744   0.39396   0.37536   0.61930
C          C       0.67883   0.31912   0.30655  -0.14145
C          C       0.49561   0.24564   0.29090  -0.12254
C          C       0.51935   0.18891   0.21768  -0.10433
C          C       0.71881   0.22084   0.17858  -0.14279
C          C       0.80702   0.17876   0.10244   0.64122
C          C       0.21753   0.89543   0.12522   0.62036
C          C       0.18307   0.82029   0.19412  -0.14072
C          C       0.00048   0.74632   0.20951  -0.11836
C          C       0.02414   0.68918   0.28251  -0.10869
C          C       0.22275   0.72136   0.32208  -0.13833
C          C       0.30834   0.67819   0.39841   0.64052
C          C       0.28255   0.60604   0.62464   0.61921
C          C       0.32116   0.68087   0.69345  -0.14135
C          C       0.50438   0.75436   0.70910  -0.12262
C          C       0.48064   0.81108   0.78232  -0.10435
C          C       0.28118   0.77915   0.82142  -0.14289
C          C       0.19297   0.82124   0.89756   0.64105
S          S       0.61598   0.17981   0.73098   0.19811
S          S       0.88052   0.31879   0.23203   0.19932
S          S       0.38401   0.82019   0.26902   0.19783
S          S       0.11947   0.68121   0.76797   0.19953
O          O       0.58339   0.06323   0.88845  -0.67080
O          O       0.95591   0.07962   0.91686  -0.69964
O          O       0.48659   0.29696   0.58328  -0.64646
O          O       0.82972   0.38233   0.55934  -0.71754
O          O       0.91962   0.43051   0.38917  -0.66916
O          O       0.54554   0.42364   0.41665  -0.69858
O          O       0.01355   0.20340   0.08579  -0.64631
O          O       0.67053   0.11975   0.05870  -0.71648
O          O       0.41660   0.93677   0.11155  -0.67097
O          O       0.04408   0.92038   0.08314  -0.69951
O          O       0.51340   0.70304   0.41672  -0.64669
O          O       0.17027   0.61767   0.44066  -0.71742
O          O       0.08037   0.56949   0.61083  -0.66887
O          O       0.45445   0.57636   0.58335  -0.69878
O          O       0.98644   0.79660   0.91421  -0.64603
O          O       0.32946   0.88025   0.94130  -0.71647

