data_crystal

_audit_creation_method 'AiiDA-DDEC plugin'

_cell_length_a        10.02868
_cell_length_b        12.46826
_cell_length_c        16.52293

_cell_angle_alpha     98.75864
_cell_angle_beta     109.73073
_cell_angle_gamma     97.36513

_symmetry_space_group_name_Hall 'P 1'
_symmetry_space_group_name_H-M  'P 1'

loop_
_symmetry_equiv_pos_as_xyz
 'x,y,z'

loop_
_atom_site_label
_atom_site_type_symbol
_atom_site_fract_x
_atom_site_fract_y
_atom_site_fract_z
_atom_site_charge
Zn         Zn      0.70935   0.24492   0.24339   0.83920
Zn         Zn      0.51882   0.18224   0.91254   0.93688
Zn         Zn      0.29065   0.75508   0.75661   0.83916
Zn         Zn      0.48120   0.81777   0.08746   0.93699
P          P       0.47620   0.28179   0.07668   1.45578
P          P       0.66518   0.01646   0.15956   1.44421
P          P       0.52382   0.71821   0.92333   1.45573
P          P       0.33488   0.98353   0.84044   1.44431
H          H       0.36124   0.39615   0.00794   0.39622
H          H       0.45401   0.06194   0.07334   0.41594
H          H       0.79660   0.43514   0.15682   0.12487
H          H       0.16421   0.54404   0.15159   0.09945
H          H       0.99546   0.58053   0.13854   0.08657
H          H       0.87989   0.41607   0.00720   0.09806
H          H       0.05488   0.39344   0.01839   0.09574
H          H       0.00744   0.13678   0.29367   0.13225
H          H       0.26142   0.11866   0.30971   0.11662
H          H       0.40915   0.24951   0.26067   0.10787
H          H       0.31409   0.40329   0.19583   0.13173
H          H       0.79792   0.17401   0.03995   0.14149
H          H       0.05596   0.17419   0.09849   0.08954
H          H       0.16849   0.21099   0.03980   0.10233
H          H       0.10458   0.02208   0.95075   0.11641
H          H       0.15980   0.01823   0.06236   0.10924
H          H       0.13318   0.17853   0.87017   0.14373
H          H       0.03951   0.20363   0.71626   0.10551
H          H       0.79076   0.23267   0.64660   0.10239
H          H       0.62009   0.23150   0.72827   0.12262
H          H       0.59366   0.44710   0.32153   0.12103
H          H       0.63256   0.61971   0.44037   0.10155
H          H       0.77172   0.63675   0.54406   0.09533
H          H       0.61856   0.50235   0.58938   0.09401
H          H       0.53716   0.61498   0.56166   0.09901
H          H       0.93124   0.53190   0.64025   0.10831
H          H       0.10538   0.40746   0.68794   0.09954
H          H       0.10885   0.24348   0.58422   0.11230
H          H       0.93787   0.19787   0.42697   0.13264
H          H       0.63877   0.60384   0.99207   0.39598
H          H       0.54604   0.93803   0.92666   0.41579
H          H       0.20340   0.56486   0.84318   0.12473
H          H       0.83579   0.45596   0.84841   0.09961
H          H       0.00453   0.41947   0.86146   0.08634
H          H       0.12010   0.58393   0.99280   0.09788
H          H       0.94511   0.60656   0.98161   0.09585
H          H       0.99256   0.86322   0.70633   0.13220
H          H       0.73857   0.88134   0.69029   0.11675
H          H       0.59085   0.75050   0.73933   0.10797
H          H       0.68591   0.59671   0.80417   0.13179
H          H       0.20210   0.82600   0.96006   0.14152
H          H       0.94405   0.82581   0.90151   0.08951
H          H       0.83152   0.78901   0.96019   0.10242
H          H       0.89543   0.97792   0.04924   0.11641
H          H       0.84021   0.98177   0.93764   0.10938
H          H       0.86683   0.82147   0.12983   0.14384
H          H       0.96049   0.79637   0.28374   0.10563
H          H       0.20924   0.76733   0.35340   0.10231
H          H       0.37991   0.76851   0.27174   0.12251
H          H       0.40634   0.55290   0.67847   0.12091
H          H       0.36743   0.38029   0.55962   0.10139
H          H       0.22827   0.36325   0.45594   0.09544
H          H       0.38143   0.49765   0.41062   0.09407
H          H       0.46283   0.38502   0.43834   0.09892
H          H       0.06876   0.46810   0.35975   0.10822
H          H       0.89462   0.59255   0.31206   0.09966
H          H       0.89115   0.75652   0.41578   0.11243
H          H       0.06212   0.80213   0.57303   0.13263
C          C       0.88976   0.39808   0.18351   0.12444
C          C       0.04786   0.51105   0.12590  -0.06174
C          C       0.99320   0.45767   0.02791  -0.17626
C          C       0.10976   0.35991   0.21422   0.06589
C          C       0.02421   0.28538   0.24230   0.12798
C          C       0.07725   0.19747   0.27766  -0.15296
C          C       0.21757   0.18773   0.28500  -0.09224
C          C       0.30254   0.26281   0.25751  -0.08018
C          C       0.25080   0.35048   0.22180  -0.17627
C          C       0.81733   0.19039   0.98129   0.13318
C          C       0.06947   0.15787   0.03511  -0.06870
C          C       0.07230   0.03656   0.00819  -0.18462
C          C       0.92885   0.19743   0.88641   0.07945
C          C       0.02419   0.19411   0.84119  -0.15513
C          C       0.96982   0.20711   0.75435  -0.10197
C          C       0.82680   0.22225   0.71438  -0.11251
C          C       0.73144   0.22283   0.75944  -0.17538
C          C       0.78376   0.20980   0.84669   0.13710
C          C       0.67722   0.42539   0.37445   0.12176
C          C       0.67882   0.57794   0.49433  -0.05750
C          C       0.56699   0.54011   0.53359  -0.18519
C          C       0.83853   0.43328   0.50698   0.08169
C          C       0.93261   0.45983   0.59465  -0.16682
C          C       0.02980   0.38981   0.62026  -0.09136
C          C       0.03199   0.29633   0.56085  -0.10590
C          C       0.93801   0.27008   0.47329  -0.15613
C          C       0.84103   0.34060   0.44654   0.13440
C          C       0.11024   0.60192   0.81649   0.12449
C          C       0.95213   0.48895   0.87410  -0.06151
C          C       0.00680   0.54234   0.97210  -0.17622
C          C       0.89024   0.64009   0.78578   0.06603
C          C       0.97579   0.71462   0.75770   0.12791
C          C       0.92275   0.80254   0.72234  -0.15296
C          C       0.78242   0.81228   0.71500  -0.09219
C          C       0.69746   0.73719   0.74249  -0.08004
C          C       0.74920   0.64952   0.77820  -0.17633
C          C       0.18268   0.80961   0.01872   0.13328
C          C       0.93054   0.84212   0.96489  -0.06869
C          C       0.92771   0.96344   0.99181  -0.18443
C          C       0.07116   0.80257   0.11359   0.07934
C          C       0.97582   0.80589   0.15881  -0.15490
C          C       0.03018   0.79289   0.24566  -0.10210
C          C       0.17320   0.77775   0.28562  -0.11245
C          C       0.26857   0.77718   0.24056  -0.17562
C          C       0.21625   0.79021   0.15331   0.13732
C          C       0.32278   0.57461   0.62555   0.12145
C          C       0.32117   0.42206   0.50567  -0.05741
C          C       0.43300   0.45989   0.46641  -0.18515
C          C       0.16146   0.56672   0.49302   0.08165
C          C       0.06739   0.54017   0.40535  -0.16677
C          C       0.97019   0.61020   0.37974  -0.09128
C          C       0.96801   0.70367   0.43916  -0.10587
C          C       0.06199   0.72992   0.52671  -0.15609
C          C       0.15896   0.65940   0.55346   0.13445
N          N       0.88828   0.31290   0.22304  -0.33121
N          N       0.02036   0.43072   0.17730  -0.01192
N          N       0.71744   0.20546   0.90819  -0.36786
N          N       0.94563   0.18771   0.97175  -0.00087
N          N       0.73880   0.33849   0.36444  -0.32848
N          N       0.73265   0.48512   0.45884  -0.01239
N          N       0.11172   0.68710   0.77697  -0.33130
N          N       0.97963   0.56929   0.82270  -0.01212
N          N       0.28258   0.79455   0.09182  -0.36834
N          N       0.05439   0.81229   0.02825  -0.00084
N          N       0.26120   0.66151   0.63556  -0.32839
N          N       0.26735   0.51488   0.54116  -0.01231
O          O       0.35855   0.36545   0.05810  -0.68140
O          O       0.57306   0.32802   0.17447  -0.78391
O          O       0.39331   0.16479   0.05656  -0.76665
O          O       0.55963   0.30174   0.01426  -0.82462
O          O       0.76816   0.06876   0.12196  -0.79386
O          O       0.49675   0.99403   0.09119  -0.73565
O          O       0.66982   0.89378   0.17123  -0.77326
O          O       0.67325   0.09120   0.24721  -0.77158
O          O       0.64149   0.63458   0.94193  -0.68131
O          O       0.42695   0.67198   0.82554  -0.78377
O          O       0.60671   0.83521   0.94345  -0.76665
O          O       0.44038   0.69826   0.98575  -0.82457
O          O       0.23190   0.93124   0.87805  -0.79382
O          O       0.50333   0.00596   0.90879  -0.73579
O          O       0.33024   0.10622   0.82878  -0.77312
O          O       0.32677   0.90879   0.75277  -0.77157

