data_crystal

_audit_creation_method 'AiiDA-DDEC plugin'

_cell_length_a        10.00224
_cell_length_b        16.28876
_cell_length_c        18.16245

_cell_angle_alpha     90.14806
_cell_angle_beta     94.11145
_cell_angle_gamma     90.39918

_symmetry_space_group_name_Hall 'P 1'
_symmetry_space_group_name_H-M  'P 1'

loop_
_symmetry_equiv_pos_as_xyz
 'x,y,z'

loop_
_atom_site_label
_atom_site_type_symbol
_atom_site_fract_x
_atom_site_fract_y
_atom_site_fract_z
_atom_site_charge
Zn         Zn      0.08277   0.55062   0.91019   1.06621
Zn         Zn      0.59178   0.55575   0.92034   1.05737
Zn         Zn      0.41927   0.05085   0.58989   1.06296
Zn         Zn      0.91076   0.05728   0.58004   1.05799
Zn         Zn      0.91747   0.45038   0.08990   1.06664
Zn         Zn      0.41089   0.44584   0.08030   1.05756
Zn         Zn      0.58248   0.94997   0.41301   1.06584
Zn         Zn      0.08876   0.94380   0.42012   1.06022
P          P       0.83406   0.43868   0.91387   1.23612
P          P       0.16430   0.94061   0.59103   1.23354
P          P       0.66326   0.94041   0.58954   1.23813
P          P       0.33445   0.44010   0.90950   1.23226
P          P       0.16626   0.56216   0.08645   1.24111
P          P       0.83506   0.06052   0.40878   1.23089
P          P       0.33823   0.06125   0.41299   1.23797
P          P       0.66729   0.56182   0.09094   1.22819
H          H       0.01213   0.29838   0.92797   0.13718
H          H       0.03256   0.17298   0.84796   0.12342
H          H       0.73310   0.26987   0.68938   0.12927
H          H       0.71349   0.39536   0.76890   0.12316
H          H       0.06394   0.96533   0.73690   0.12332
H          H       0.02351   0.86668   0.83880   0.12587
H          H       0.14015   0.66513   0.70371   0.12838
H          H       0.18180   0.76367   0.60154   0.12641
H          H       0.48576   0.79858   0.57530   0.13707
H          H       0.46662   0.67265   0.65439   0.12279
H          H       0.77239   0.77022   0.81093   0.12936
H          H       0.78999   0.89633   0.73244   0.12298
H          H       0.43872   0.46506   0.76394   0.12657
H          H       0.48077   0.36629   0.66259   0.12657
H          H       0.36124   0.16447   0.79690   0.12897
H          H       0.31834   0.26310   0.89876   0.12677
H          H       0.98638   0.70120   0.07233   0.13634
H          H       0.96065   0.82552   0.15279   0.12242
H          H       0.26545   0.73312   0.31046   0.12868
H          H       0.28934   0.60826   0.23106   0.12118
H          H       0.93535   0.03632   0.26299   0.12900
H          H       0.97625   0.13505   0.16131   0.12607
H          H       0.85836   0.33642   0.29629   0.12875
H          H       0.81640   0.23782   0.39826   0.12784
H          H       0.51566   0.20393   0.42625   0.13827
H          H       0.53519   0.32871   0.34602   0.12193
H          H       0.23010   0.22978   0.19005   0.12839
H          H       0.21200   0.10463   0.26962   0.12280
H          H       0.56124   0.53550   0.23563   0.12253
H          H       0.51963   0.63261   0.33815   0.12718
H          H       0.63987   0.83636   0.20595   0.12944
H          H       0.68241   0.73884   0.10331   0.12742
C          C       0.86010   0.35305   0.85374  -0.09157
C          C       0.95310   0.29114   0.87565  -0.05213
C          C       0.96448   0.22246   0.83145  -0.09505
C          C       0.88454   0.21527   0.76410   0.03908
C          C       0.79360   0.27773   0.74120  -0.09891
C          C       0.78249   0.34634   0.78546  -0.04405
C          C       0.89226   0.14006   0.71793   0.55172
C          C       0.12661   0.87048   0.66346  -0.11353
C          C       0.08231   0.89998   0.73051  -0.06441
C          C       0.05925   0.84535   0.78686  -0.08501
C          C       0.08149   0.76060   0.77704   0.01336
C          C       0.12464   0.73076   0.70985  -0.10052
C          C       0.14789   0.78544   0.65368  -0.04855
C          C       0.05420   0.70162   0.83642   0.54272
C          C       0.64019   0.85365   0.64868  -0.09384
C          C       0.54621   0.79142   0.62704  -0.05536
C          C       0.53556   0.72241   0.67071  -0.09238
C          C       0.61773   0.71510   0.73718   0.03764
C          C       0.70987   0.77793   0.75987  -0.10140
C          C       0.71996   0.84701   0.71618  -0.04219
C          C       0.61116   0.63889   0.78185   0.55062
C          C       0.37443   0.37010   0.83726  -0.10994
C          C       0.41991   0.39965   0.77047  -0.06613
C          C       0.44388   0.34497   0.71422  -0.08606
C          C       0.42099   0.26013   0.72362   0.01529
C          C       0.37694   0.23018   0.79065  -0.09940
C          C       0.35309   0.28488   0.84680  -0.04917
C          C       0.44716   0.20121   0.66381   0.54102
C          C       0.14015   0.64814   0.14642  -0.09461
C          C       0.04502   0.70887   0.12469  -0.05149
C          C       0.03110   0.77720   0.16897  -0.09485
C          C       0.11152   0.78582   0.23594   0.03360
C          C       0.20490   0.72465   0.25871  -0.09763
C          C       0.21800   0.65607   0.21455  -0.04457
C          C       0.10173   0.86150   0.28131   0.55220
C          C       0.87261   0.13111   0.33651  -0.11018
C          C       0.91704   0.10168   0.26944  -0.06733
C          C       0.94048   0.15635   0.21319  -0.08676
C          C       0.91876   0.24105   0.22295   0.01385
C          C       0.87433   0.27084   0.29000  -0.09933
C          C       0.85087   0.21614   0.34618  -0.05285
C          C       0.94622   0.29974   0.16326   0.54170
C          C       0.36142   0.14777   0.35327  -0.09601
C          C       0.45491   0.21040   0.37454  -0.05573
C          C       0.46583   0.27895   0.33030  -0.09370
C          C       0.38443   0.28571   0.26351   0.03410
C          C       0.29207   0.22280   0.24140  -0.09891
C          C       0.28190   0.15408   0.28565  -0.04397
C          C       0.39343   0.36151   0.21822   0.55073
C          C       0.62608   0.63124   0.16354  -0.11164
C          C       0.58021   0.60097   0.22992  -0.06358
C          C       0.55640   0.65491   0.28681  -0.08631
C          C       0.57941   0.73995   0.27851   0.01187
C          C       0.62365   0.77062   0.21174  -0.09953
C          C       0.64746   0.71655   0.15503  -0.05139
C          C       0.55344   0.79775   0.33936   0.54368
O          O       0.68070   0.44977   0.91101  -0.69321
O          O       0.89880   0.51575   0.88121  -0.68127
O          O       0.89949   0.41259   0.98885  -0.72690
O          O       0.89268   0.15081   0.64797  -0.48750
O          O       0.89531   0.07195   0.75022  -0.41225
O          O       0.95749   0.71448   0.87491  -0.40348
O          O       0.13193   0.63853   0.84317  -0.49621
O          O       0.09787   0.02369   0.60309  -0.70429
O          O       0.31884   0.94898   0.60012  -0.67464
O          O       0.11920   0.89667   0.51818  -0.67943
O          O       0.81606   0.95249   0.58923  -0.69514
O          O       0.60038   0.01586   0.62554  -0.67684
O          O       0.59351   0.91612   0.51480  -0.72869
O          O       0.61367   0.64804   0.85217  -0.48552
O          O       0.60617   0.57143   0.74817  -0.41347
O          O       0.54523   0.21271   0.62578  -0.40612
O          O       0.36657   0.13893   0.65608  -0.49198
O          O       0.40401   0.52333   0.90017  -0.70627
O          O       0.18049   0.44897   0.89639  -0.67320
O          O       0.37387   0.39635   0.98270  -0.68154
O          O       0.31951   0.55092   0.08906  -0.69587
O          O       0.10145   0.48504   0.11890  -0.68323
O          O       0.10068   0.58787   0.01128  -0.72659
O          O       0.11374   0.85254   0.35173  -0.49046
O          O       0.08625   0.92868   0.24814  -0.41473
O          O       0.04400   0.28846   0.12520  -0.40278
O          O       0.86653   0.36174   0.15576  -0.49209
O          O       0.90118   0.97722   0.39659  -0.70514
O          O       0.68055   0.05203   0.39982  -0.67547
O          O       0.88042   0.10386   0.48183  -0.68120
O          O       0.18542   0.04776   0.41116  -0.69227
O          O       0.40150   0.98517   0.37814  -0.67364
O          O       0.40510   0.08727   0.48812  -0.72777
O          O       0.38666   0.35292   0.14775  -0.48555
O          O       0.40439   0.42897   0.25181  -0.41395
O          O       0.45701   0.78490   0.37827  -0.40423
O          O       0.63286   0.86066   0.34763  -0.49323
O          O       0.60016   0.47772   0.10000  -0.70417
O          O       0.82107   0.55247   0.10364  -0.67294
O          O       0.62715   0.60615   0.01795  -0.67927

