data_crystal

_audit_creation_method 'AiiDA-DDEC plugin'

_cell_length_a         9.62273
_cell_length_b        12.38706
_cell_length_c        19.06739

_cell_angle_alpha     106.26946
_cell_angle_beta     99.54115
_cell_angle_gamma     101.20923

_symmetry_space_group_name_Hall 'P 1'
_symmetry_space_group_name_H-M  'P 1'

loop_
_symmetry_equiv_pos_as_xyz
 'x,y,z'

loop_
_atom_site_label
_atom_site_type_symbol
_atom_site_fract_x
_atom_site_fract_y
_atom_site_fract_z
_atom_site_charge
Eu         Eu      0.21308   0.01480   0.00681   1.58040
Eu         Eu      0.78722   0.98451   0.99387   1.58123
H          H       0.33505   0.07829   0.18763   0.13916
H          H       0.78600   0.07252   0.24630   0.11864
H          H       0.78158   0.14495   0.38154   0.09307
H          H       0.13379   0.80656   0.83022   0.14079
H          H       0.78290   0.14784   0.66005   0.09523
H          H       0.34211   0.15200   0.32485   0.09209
H          H       0.76906   0.12721   0.78680   0.13872
H          H       0.66988   0.65387   0.75065   0.12942
H          H       0.22023   0.12033   0.82467   0.14661
H          H       0.15946   0.33674   0.67759   0.13985
H          H       0.10561   0.46726   0.70011   0.15576
H          H       0.20320   0.43692   0.62914   0.12868
H          H       0.11996   0.17457   0.59608   0.09387
H          H       0.96782   0.05414   0.55690   0.08244
H          H       0.16745   0.68274   0.70923   0.09206
H          H       0.08618   0.55815   0.59902   0.09642
H          H       0.93060   0.58149   0.55035   0.08365
H          H       0.71668   0.53352   0.63047   0.09141
H          H       0.22013   0.13111   0.69424   0.09090
H          H       0.57755   0.43513   0.49875   0.12842
H          H       0.64753   0.39616   0.41789   0.14377
H          H       0.74078   0.52343   0.49417   0.12798
H          H       0.48816   0.25153   0.44474   0.09343
H          H       0.49314   0.11364   0.45058   0.07726
H          H       0.77932   0.99505   0.45399   0.12618
H          H       0.60487   0.01012   0.46328   0.13589
H          H       0.72959   0.00324   0.54042   0.12715
H          H       0.66773   0.92370   0.81159   0.13887
H          H       0.21558   0.92612   0.75348   0.12136
H          H       0.22035   0.85506   0.61778   0.09481
H          H       0.86631   0.19367   0.16943   0.13938
H          H       0.21729   0.85040   0.33775   0.09640
H          H       0.65946   0.85031   0.67405   0.09177
H          H       0.23066   0.86929   0.21057   0.13857
H          H       0.33079   0.34456   0.24976   0.12811
H          H       0.77874   0.87463   0.17227   0.14646
H          H       0.84145   0.66334   0.32073   0.13928
H          H       0.89490   0.53246   0.29913   0.15704
H          H       0.79668   0.56403   0.36966   0.12777
H          H       0.88085   0.82655   0.40245   0.09369
H          H       0.03351   0.94670   0.44069   0.08073
H          H       0.83231   0.31751   0.28996   0.09067
H          H       0.91383   0.44251   0.40035   0.09553
H          H       0.06915   0.41932   0.44933   0.07886
H          H       0.28413   0.46544   0.36931   0.08773
H          H       0.77981   0.86609   0.30317   0.09095
H          H       0.42372   0.56756   0.50217   0.12749
H          H       0.34945   0.60358   0.58176   0.13823
H          H       0.25992   0.47701   0.50419   0.12836
H          H       0.51215   0.74888   0.55401   0.09315
H          H       0.50753   0.88715   0.54857   0.07827
H          H       0.22121   0.00650   0.54364   0.12462
H          H       0.39579   0.99057   0.53545   0.13335
H          H       0.27256   0.99659   0.45748   0.12893
C          C       0.91744   0.21992   0.56989  -0.05272
C          C       0.87367   0.81210   0.87120   0.56744
C          C       0.56067   0.06994   0.20550  -0.03194
C          C       0.89949   0.41163   0.56541  -0.04795
C          C       0.70168   0.24029   0.49279  -0.04542
C          C       0.43416   0.09153   0.22937  -0.10740
C          C       0.76317   0.36149   0.51376   0.06896
C          C       0.97556   0.34117   0.59499   0.09049
C          C       0.68661   0.08825   0.26223  -0.15135
C          C       0.56368   0.03265   0.12429   0.59451
C          C       0.68625   0.12755   0.33689  -0.06131
C          C       0.04007   0.74545   0.78773  -0.12440
C          C       0.89828   0.73840   0.80055  -0.02038
C          C       0.87416   0.13862   0.69771  -0.05894
C          C       0.43575   0.13162   0.30432  -0.07054
C          C       0.86941   0.12956   0.76737  -0.14185
C          C       0.77988   0.66059   0.74205  -0.14617
C          C       0.12333   0.12579   0.78846  -0.12027
C          C       0.99515   0.12478   0.81570  -0.00518
C          C       0.77909   0.16877   0.51958   0.06877
C          C       0.11805   0.39744   0.65305  -0.42321
C          C       0.00516   0.14360   0.59616  -0.11854
C          C       0.06084   0.67909   0.72150  -0.05439
C          C       0.96791   0.54136   0.59207  -0.11367
C          C       0.80310   0.59535   0.67611  -0.06275
C          C       0.12511   0.13216   0.71796  -0.07131
C          C       0.99379   0.11555   0.89217   0.58185
C          C       0.67906   0.43304   0.47954  -0.42805
C          C       0.55457   0.18829   0.43844  -0.10868
C          C       0.71962   0.03806   0.49329  -0.42437
C          C       0.08282   0.78068   0.42896  -0.05833
C          C       0.12592   0.18666   0.12889   0.56700
C          C       0.44109   0.92985   0.79392  -0.02252
C          C       0.10037   0.58896   0.43381  -0.04747
C          C       0.29868   0.76058   0.50630  -0.05005
C          C       0.56789   0.90938   0.76999  -0.10416
C          C       0.23683   0.63931   0.48553   0.06285
C          C       0.02462   0.65931   0.40399   0.09191
C          C       0.31494   0.91104   0.73727  -0.15648
C          C       0.43699   0.96679   0.87540   0.59057
C          C       0.31532   0.87227   0.66253  -0.05838
C          C       0.96007   0.25463   0.21190  -0.12893
C          C       0.10198   0.26089   0.19910  -0.03489
C          C       0.12598   0.85930   0.29995  -0.06030
C          C       0.56577   0.86970   0.69483  -0.06680
C          C       0.13034   0.86723   0.23001  -0.13786
C          C       0.22053   0.33837   0.25790  -0.14891
C          C       0.87606   0.87001   0.20859  -0.11852
C          C       0.00438   0.87140   0.18146  -0.00847
C          C       0.22142   0.83193   0.47930   0.06794
C          C       0.88232   0.60291   0.34576  -0.42266
C          C       0.99566   0.85678   0.40209  -0.11811
C          C       0.93904   0.32121   0.27788  -0.06355
C          C       0.03213   0.45914   0.40727  -0.11380
C          C       0.19746   0.40395   0.32367  -0.07423
C          C       0.87476   0.86491   0.27941  -0.06975
C          C       0.00577   0.87960   0.10480   0.58317
C          C       0.32064   0.56791   0.52003  -0.42766
C          C       0.44608   0.81236   0.56051  -0.10466
C          C       0.28131   0.96256   0.50501  -0.42588
N          N       0.00212   0.14232   0.67277   0.07651
N          N       0.94356   0.60262   0.66504   0.04933
N          N       0.56249   0.15201   0.35910   0.04518
N          N      -0.00166   0.85654   0.32515   0.07295
N          N       0.05655   0.39809   0.33455   0.04597
N          N       0.43908   0.84896   0.64025   0.05191
O          O       0.44398   0.00518   0.07623  -0.63847
O          O       0.68899   0.03179   0.11015  -0.63697
O          O       0.74292   0.80428   0.87813  -0.60730
O          O       0.98532   0.88282   0.92044  -0.67513
O          O       0.86887   0.08974   0.90633  -0.62921
O          O       0.11790   0.13265   0.93462  -0.62362
O          O       0.55643   0.99545   0.92360  -0.63112
O          O       0.31129   0.96638   0.88902  -0.62815
O          O       0.25657   0.19293   0.12170  -0.61123
O          O       0.01407   0.11620   0.07931  -0.68516
O          O       0.13068   0.90456   0.09043  -0.63131
O          O       0.88185   0.86245   0.06206  -0.62734

