data_crystal

_audit_creation_method 'AiiDA-DDEC plugin'

_cell_length_a         9.58943
_cell_length_b        15.31985
_cell_length_c        21.55524

_cell_angle_alpha     89.98644
_cell_angle_beta     98.50001
_cell_angle_gamma     89.94256

_symmetry_space_group_name_Hall 'P 1'
_symmetry_space_group_name_H-M  'P 1'

loop_
_symmetry_equiv_pos_as_xyz
 'x,y,z'

loop_
_atom_site_label
_atom_site_type_symbol
_atom_site_fract_x
_atom_site_fract_y
_atom_site_fract_z
_atom_site_charge
Li         Li      0.49654   0.15977   0.19482   0.86898
Li         Li      0.50411   0.65959   0.30543   0.86848
Li         Li      0.50347   0.84023   0.80518   0.86900
Li         Li      0.49590   0.34041   0.69457   0.86850
Zn         Zn      0.26554   0.26899   0.26076   0.94242
Zn         Zn      0.73468   0.76782   0.23911   0.94334
Zn         Zn      0.73447   0.73101   0.73924   0.94240
Zn         Zn      0.26533   0.23218   0.76089   0.94332
H          H       0.44930   0.49338   0.20953   0.13922
H          H       0.54370   0.71675   0.06618   0.13140
H          H       0.44385   0.27820   0.04757   0.12760
H          H       0.00069   0.51376   0.28524   0.15017
H          H       0.24987   0.34470   0.45433   0.12950
H          H       0.75036   0.66230   0.43119   0.12284
H          H       0.55168   0.99399   0.29043   0.13943
H          H       0.45643   0.21713   0.43422   0.13168
H          H       0.55633   0.77840   0.45210   0.12739
H          H       0.00058   0.01394   0.21489   0.14949
H          H       0.75204   0.84440   0.04625   0.12926
H          H       0.24910   0.16262   0.06828   0.12274
H          H       0.55071   0.50662   0.79047   0.13917
H          H       0.45630   0.28325   0.93382   0.13138
H          H       0.55615   0.72180   0.95244   0.13011
H          H      -0.00068   0.48624   0.71476   0.15031
H          H       0.75013   0.65530   0.54567   0.12943
H          H       0.24964   0.33770   0.56881   0.12298
H          H       0.44833   0.00600   0.70957   0.13999
H          H       0.54358   0.78286   0.56578   0.13179
H          H       0.44368   0.22160   0.54790   0.12734
H          H      -0.00057   0.98606   0.78511   0.14950
H          H       0.24796   0.15560   0.95375   0.12924
H          H       0.75090   0.83738   0.93172   0.12256
C          C       0.42015   0.33611   0.16175   0.61303
C          C       0.45207   0.41683   0.12653  -0.02721
C          C       0.46417   0.49459   0.16054  -0.11397
C          C       0.49736   0.57332   0.13376  -0.02221
C          C       0.52356   0.64940   0.17788   0.60890
C          C       0.51023   0.57721   0.06884   0.06075
C          C       0.53325   0.65723   0.03846  -0.09232
C          C       0.45775   0.33998   0.02460  -0.10350
C          C       0.46910   0.41711   0.06181   0.06300
C          C       0.49461   0.49858   0.03268  -0.01190
C          C       0.18566   0.39598   0.33887   0.54756
C          C       0.08924   0.45100   0.37152   0.02255
C          C       0.00080   0.51067   0.33571  -0.14135
C          C       0.91046   0.56450   0.36332   0.01451
C          C       0.80769   0.62136   0.32208   0.59672
C          C       0.09120   0.44599   0.43813   0.04723
C          C       0.17975   0.38684   0.47621  -0.07843
C          C       0.82016   0.61685   0.45957  -0.08314
C          C       0.90850   0.56158   0.42973   0.05162
C          C      -0.00004   0.50189   0.46695  -0.00384
C          C       0.57976   0.83600   0.33819   0.61572
C          C       0.54859   0.91711   0.37332  -0.02639
C          C       0.53687   0.99504   0.33944  -0.11787
C          C       0.50361   0.07375   0.36633  -0.01852
C          C       0.47620   0.14981   0.32216   0.60878
C          C       0.49033   0.07751   0.43125   0.06010
C          C       0.46687   0.15740   0.46176  -0.09507
C          C       0.54240   0.84008   0.47519  -0.10072
C          C       0.53112   0.91732   0.43804   0.06051
C          C       0.50560  -0.00128   0.46732  -0.01033
C          C       0.81430   0.89627   0.16070   0.55013
C          C       0.91185   0.95116   0.12864   0.02484
C          C       0.00028   0.01083   0.16441  -0.14301
C          C       0.09006   0.06489   0.13668   0.01619
C          C       0.19229   0.12240   0.17776   0.59822
C          C       0.90974   0.94606   0.06204   0.04715
C          C       0.82135   0.88678   0.02417  -0.07843
C          C       0.17939   0.11702   0.04010  -0.08190
C          C       0.09162   0.06181   0.07018   0.05276
C          C       0.00035   0.00198   0.03307  -0.00518
C          C       0.57985   0.66389   0.83825   0.61306
C          C       0.54793   0.58317   0.87348  -0.02754
C          C       0.53584   0.50541   0.83946  -0.11389
C          C       0.50265   0.42668   0.86625  -0.02223
C          C       0.47644   0.35060   0.82213   0.60899
C          C       0.48977   0.42279   0.93116   0.06076
C          C       0.46675   0.34277   0.96154  -0.09209
C          C       0.54226   0.66002   0.97540  -0.10515
C          C       0.53090   0.58289   0.93819   0.06302
C          C       0.50539   0.50142   0.96733  -0.01193
C          C       0.81434   0.60402   0.66113   0.54754
C          C       0.91077   0.54900   0.62849   0.02244
C          C      -0.00080   0.48933   0.66429  -0.14137
C          C       0.08955   0.43550   0.63668   0.01449
C          C       0.19232   0.37864   0.67792   0.59655
C          C       0.90881   0.55401   0.56187   0.04728
C          C       0.82026   0.61316   0.52379  -0.07847
C          C       0.17985   0.38315   0.54043  -0.08317
C          C       0.09151   0.43842   0.57027   0.05181
C          C       0.00004   0.49811   0.53305  -0.00389
C          C       0.42025   0.16399   0.66181   0.61569
C          C       0.45142   0.08289   0.62668  -0.02639
C          C       0.46314   0.00496   0.66056  -0.11866
C          C       0.49639   0.92625   0.63367  -0.01857
C          C       0.52381   0.85018   0.67784   0.60881
C          C       0.50967   0.92249   0.56875   0.06022
C          C       0.53314   0.84260   0.53825  -0.09506
C          C       0.45761   0.15991   0.52481  -0.10070
C          C       0.46889   0.08268   0.56196   0.06056
C          C       0.49440   0.00128   0.53269  -0.01009
C          C       0.18571   0.10373   0.83930   0.55012
C          C       0.08815   0.04884   0.87136   0.02487
C          C      -0.00027   0.98917   0.83559  -0.14319
C          C       0.90994   0.93511   0.86333   0.01614
C          C       0.80771   0.87760   0.82225   0.59823
C          C       0.09026   0.05394   0.93797   0.04714
C          C       0.17865   0.11321   0.97584  -0.07833
C          C       0.82061   0.88297   0.95990  -0.08174
C          C       0.90838   0.93819   0.92982   0.05287
C          C      -0.00034  -0.00198   0.96694  -0.00522
O          O       0.47251   0.26375   0.14951  -0.65755
O          O       0.34028   0.35079   0.20348  -0.55579
O          O       0.44460   0.65790   0.21905  -0.64458
O          O       0.63145   0.69680   0.17155  -0.55919
O          O       0.12605   0.33767   0.30096  -0.51134
O          O       0.31411   0.41310   0.35013  -0.47966
O          O       0.68003   0.60049   0.31883  -0.63197
O          O       0.86053   0.68400   0.29413  -0.52179
O          O       0.52635   0.76412   0.35062  -0.65995
O          O       0.66003   0.84942   0.29651  -0.55829
O          O       0.55555   0.15981   0.28127  -0.64477
O          O       0.36637   0.19557   0.32816  -0.55807
O          O       0.87206   0.83555   0.19697  -0.51322
O          O       0.68663   0.91563   0.15005  -0.47809
O          O       0.32022   0.10216   0.18098  -0.63346
O          O       0.13916   0.18492   0.20570  -0.52158
O          O       0.52750   0.73625   0.85049  -0.65818
O          O       0.65973   0.64921   0.79653  -0.55575
O          O       0.55541   0.34210   0.78096  -0.64455
O          O       0.36855   0.30320   0.82845  -0.55924
O          O       0.87396   0.66232   0.69905  -0.51119
O          O       0.68589   0.58690   0.64987  -0.47980
O          O       0.31998   0.39951   0.68117  -0.63175
O          O       0.13948   0.31599   0.70587  -0.52179
O          O       0.47366   0.23588   0.64938  -0.65987
O          O       0.33998   0.15058   0.70350  -0.55834
O          O       0.44446   0.84019   0.71873  -0.64494
O          O       0.63363   0.80443   0.67184  -0.55790
O          O       0.12794   0.16445   0.80303  -0.51340
O          O       0.31338   0.08437   0.84995  -0.47786
O          O       0.67978   0.89784   0.81902  -0.63363
O          O       0.86085   0.81508   0.79430  -0.52142

