data_crystal

_audit_creation_method 'AiiDA-DDEC plugin'

_cell_length_a         4.60033
_cell_length_b        11.77158
_cell_length_c        25.23149

_cell_angle_alpha     95.09258
_cell_angle_beta     90.12037
_cell_angle_gamma     89.82241

_symmetry_space_group_name_Hall 'P 1'
_symmetry_space_group_name_H-M  'P 1'

loop_
_symmetry_equiv_pos_as_xyz
 'x,y,z'

loop_
_atom_site_label
_atom_site_type_symbol
_atom_site_fract_x
_atom_site_fract_y
_atom_site_fract_z
_atom_site_charge
Zn         Zn      0.29328   0.07752   0.54894   0.90985
Zn         Zn      0.19473   0.81434   0.96835   0.87552
Zn         Zn      0.79398   0.92366   0.44920   0.90881
Zn         Zn      0.69229   0.18040   0.03030   0.87765
H          H       0.86560   0.24008   0.42411   0.12974
H          H       0.03425   0.27838   0.33307   0.10293
H          H       0.34109   0.06886   0.26463   0.11349
H          H       0.00779   0.96917   0.20794   0.10784
H          H       0.75380   0.83128   0.14207   0.09692
H          H       0.39372   0.22764   0.17190   0.11184
H          H       0.46203   0.22360   0.65680   0.11396
H          H       0.77089   0.26325   0.55016   0.13325
H          H       0.75717   0.44391   0.62952   0.13833
H          H       0.22923   0.52189   0.69352   0.10802
H          H       0.43897   0.40884   0.71575   0.07835
H          H       0.04409   0.23756   0.74740   0.13455
H          H       0.66832   0.22060   0.81443   0.12051
H          H       0.49234   0.58111   0.81711   0.11857
H          H       0.87240   0.59904   0.75186   0.11639
H          H       0.09535   0.38505   0.84752   0.08822
H          H       0.35413   0.30900   0.88247   0.12075
H          H       0.99013   0.59572   0.88726   0.09736
H          H       0.66768   0.63931  -0.00010   0.13058
H          H       0.72821   0.42459   0.94230   0.13947
H          H       0.37541   0.76414   0.57503   0.12884
H          H       0.53757   0.72169   0.66609   0.10300
H          H       0.83279   0.92693   0.73376   0.11333
H          H       0.51656   0.02165   0.79172   0.10626
H          H       0.27662   0.16195   0.85889   0.09685
H          H       0.87325   0.77402   0.82555   0.11273
H          H       0.95394   0.77495   0.34153   0.11240
H          H       0.26776   0.74117   0.44925   0.13214
H          H       0.25063   0.55783   0.37146   0.13828
H          H       0.71790   0.47601   0.30771   0.10723
H          H       0.92692   0.58712   0.28408   0.07741
H          H       0.51786   0.75887   0.25335   0.13300
H          H       0.13874   0.77350   0.18638   0.12150
H          H       0.98612   0.41184   0.18302   0.11990
H          H       0.36930   0.39609   0.24813   0.11667
H          H       0.57304   0.60488   0.15313   0.08563
H          H       0.82811   0.68453   0.11899   0.12063
H          H       0.48121   0.39548   0.11206   0.09723
H          H       0.16291   0.35872   0.00041   0.13142
H          H       0.21014   0.57267   0.05897   0.14022
C          C       0.40412   0.12645   0.45070   0.59477
C          C       0.49610   0.14261   0.39487  -0.03935
C          C       0.74059   0.20925   0.38898  -0.12304
C          C       0.84634   0.22508   0.33845  -0.07900
C          C       0.69672   0.17586   0.29298  -0.04283
C          C       0.44995   0.11006   0.29927  -0.06213
C          C       0.34236   0.09310   0.35016  -0.04887
C          C       0.11670   0.00378   0.35746   0.56395
C          C       0.82822   0.18287   0.24055   0.37064
C          C       0.70824   0.10635   0.19495   0.00089
C          C       0.82615   0.99633   0.18446  -0.10360
C          C       0.67748   0.91841   0.14933  -0.10568
C          C       0.43964   0.95095   0.12054  -0.03368
C          C       0.34419   0.06544   0.12618  -0.03164
C          C       0.47878   0.14141   0.16477  -0.16406
C          C       0.15872   0.11140   0.08295   0.59617
C          C       0.31307   0.86550   0.07930   0.57988
C          C       0.29567   0.26510   0.63502   0.06297
C          C       0.91574   0.28371   0.58341  -0.00915
C          C       0.90749   0.37341   0.62241  -0.11688
C          C       0.21726   0.43276   0.70298  -0.11599
C          C       0.99173   0.42017   0.74476   0.06157
C          C       0.92114   0.31330   0.76196  -0.11640
C          C       0.70934   0.30367   0.80053  -0.11921
C          C       0.54604   0.39891   0.82110   0.08401
C          C       0.61485   0.50521   0.80303  -0.12696
C          C       0.82921   0.51534   0.76513  -0.15933
C          C       0.32148   0.38782   0.86329  -0.11904
C          C       0.16784   0.57621   0.91298   0.06392
C          C       0.53333   0.59691   0.96917  -0.00622
C          C       0.57273   0.49333   0.94016  -0.12010
C          C       0.90790   0.87455   0.54788   0.59520
C          C      -0.00212   0.85798   0.60381  -0.03783
C          C       0.24518   0.79224   0.60990  -0.12262
C          C       0.34739   0.77418   0.66053  -0.07856
C          C       0.19259   0.82104   0.70578  -0.04342
C          C       0.94581   0.88720   0.69928  -0.06675
C          C       0.84072   0.90598   0.64844  -0.04486
C          C       0.61271   0.99550   0.64189   0.56566
C          C       0.31929   0.81223   0.75850   0.37277
C          C       0.20209   0.88988   0.80383   0.00347
C          C       0.33275   0.99709   0.81508  -0.10907
C          C       0.19196   0.07638   0.85080  -0.09498
C          C       0.95084   0.04760   0.87953  -0.04631
C          C       0.84485   0.93452   0.87333  -0.01821
C          C       0.96934   0.85805   0.83366  -0.16646
C          C       0.65841   0.88584   0.91597   0.60264
C          C       0.83070   0.13608   0.92021   0.57207
C          C       0.78863   0.73471   0.36380   0.06322
C          C       0.41138   0.71920   0.41605  -0.00375
C          C       0.40099   0.62820   0.37777  -0.11940
C          C       0.70576   0.56455   0.29736  -0.11434
C          C       0.47741   0.57586   0.25571   0.06326
C          C       0.39888   0.68239   0.23878  -0.11764
C          C       0.18443   0.69085   0.20043  -0.12130
C          C       0.02593   0.59467   0.17975   0.08305
C          C       0.10350   0.48862   0.19734  -0.12777
C          C       0.32015   0.47968   0.23515  -0.15786
C          C       0.79912   0.60485   0.13756  -0.11595
C          C       0.65874   0.41652   0.08684   0.06137
C          C       0.02693   0.39933   0.03134  -0.00346
C          C       0.05875   0.50285   0.06067  -0.12028
N          N       0.15422   0.21720   0.59179  -0.29496
N          N       0.14935   0.36135   0.65386   0.05651
N          N       0.34056   0.48161   0.90534   0.06306
N          N       0.28469   0.64785   0.95213  -0.30334
N          N       0.64941   0.78464   0.40683  -0.29377
N          N       0.64126   0.63828   0.34592   0.05600
N          N       0.82510   0.51239   0.09505   0.06000
N          N       0.78127   0.34627   0.04780  -0.30186
O          O       0.20257   0.18268   0.47347  -0.50899
O          O       0.57029   0.06244   0.47856  -0.55597
O          O       0.11162   0.97740   0.40669  -0.59612
O          O       0.97068   0.95997   0.31967  -0.53206
O          O       0.04238   0.24484   0.23555  -0.40786
O          O       0.89947   0.07836   0.07676  -0.48179
O          O       0.27156   0.18433   0.05391  -0.56851
O          O       0.27123   0.76488   0.08987  -0.57159
O          O       0.27069   0.90667   0.03425  -0.51962
O          O       0.71113   0.81718   0.52431  -0.50880
O          O       0.07074   0.93984   0.52060  -0.55766
O          O       0.60242   0.02206   0.59279  -0.59859
O          O       0.47079   0.03947   0.68019  -0.53362
O          O       0.53041   0.74868   0.76419  -0.40921
O          O       0.39253   0.91004   0.91834  -0.48191
O          O       0.77304   0.81648   0.94695  -0.56911
O          O       0.84467   0.23975   0.91273  -0.57104
O          O       0.72626   0.09396   0.96167  -0.52425

