data_crystal

_audit_creation_method 'AiiDA-DDEC plugin'

_cell_length_a         9.83547
_cell_length_b        11.31451
_cell_length_c        22.46172

_cell_angle_alpha     103.14432
_cell_angle_beta     90.00408
_cell_angle_gamma     115.72265

_symmetry_space_group_name_Hall 'P 1'
_symmetry_space_group_name_H-M  'P 1'

loop_
_symmetry_equiv_pos_as_xyz
 'x,y,z'

loop_
_atom_site_label
_atom_site_type_symbol
_atom_site_fract_x
_atom_site_fract_y
_atom_site_fract_z
_atom_site_charge
Zn         Zn      0.06751   0.66059   0.61811   0.74293
Zn         Zn      0.40728   0.33946   0.88188   0.74220
Zn         Zn      0.93248   0.33942   0.38189   0.74305
Zn         Zn      0.59272   0.66054   0.11812   0.74215
H          H       0.94132   0.38634   0.54215   0.10374
H          H       0.00090   0.19053   0.51299   0.13044
H          H       0.40269   0.41890   0.64375   0.12762
H          H       0.33137   0.61005   0.66540   0.09682
H          H       0.20476   0.11420   0.51377   0.11464
H          H       0.35973   0.19629   0.57207   0.10718
H          H       0.16073   0.96736   0.58312   0.11510
H          H       0.02628   0.03183   0.59371   0.11572
H          H       0.13536   0.27838   0.80403   0.10242
H          H       0.02403   0.17253   0.69393   0.13042
H          H       0.39965   0.07390   0.66246   0.12596
H          H       0.49417   0.18238   0.77394   0.10449
H          H       0.59766   0.74019   0.55979   0.10784
H          H       0.65247   0.37589   0.50660   0.10472
H          H       0.61436   0.02279   0.60333   0.11701
H          H       0.23600   0.82529   0.46293   0.10292
H          H       0.55539   0.61351   0.95801   0.10368
H          H       0.81038   0.80925   0.98706   0.13051
H          H       0.98360   0.58124   0.85576   0.12801
H          H       0.72160   0.39011   0.83428   0.09724
H          H       0.09022   0.88553   0.98617   0.11437
H          H       0.16328   0.80353   0.92788   0.10675
H          H       0.19274   0.03266   0.91688   0.11530
H          H       0.99385   0.96776   0.90613   0.11547
H          H       0.85723   0.72081   0.69596   0.10236
H          H       0.85151   0.82693   0.80604   0.13020
H          H       0.32556   0.92568   0.83768   0.12529
H          H       0.31196   0.81708   0.72623   0.10470
H          H       0.85801   0.25991   0.93995   0.10815
H          H       0.27628   0.62449   0.99348   0.10481
H          H       0.59200   0.97671   0.89674   0.11679
H          H       0.41158   0.17559   0.03690   0.10248
H          H       0.05867   0.61367   0.45785   0.10357
H          H      -0.00091   0.80947   0.48700   0.13036
H          H       0.59730   0.58110   0.35624   0.12792
H          H       0.66862   0.38995   0.33460   0.09687
H          H       0.79523   0.88580   0.48623   0.11443
H          H       0.64027   0.80372   0.42793   0.10729
H          H       0.83926   0.03264   0.41687   0.11528
H          H       0.97371   0.96818   0.40629   0.11556
H          H       0.86463   0.72163   0.19597   0.10250
H          H       0.97597   0.82747   0.30607   0.13020
H          H       0.60034   0.92610   0.33753   0.12597
H          H       0.50582   0.81762   0.22606   0.10479
H          H       0.40233   0.25981   0.44021   0.10793
H          H       0.34752   0.62411   0.49339   0.10492
H          H       0.38563   0.97721   0.39666   0.11736
H          H       0.76400   0.17471   0.53707   0.10275
H          H       0.44460   0.38649   0.04199   0.10369
H          H       0.18961   0.19075   0.01293   0.13048
H          H       0.01639   0.41876   0.14424   0.12800
H          H       0.27839   0.60990   0.16572   0.09724
H          H       0.90978   0.11447   0.01382   0.11448
H          H       0.83672   0.19647   0.07211   0.10684
H          H       0.80726   0.96735   0.08312   0.11541
H          H       0.00614   0.03224   0.09386   0.11538
H          H       0.14276   0.27919   0.30403   0.10219
H          H       0.14848   0.17307   0.19396   0.13011
H          H       0.67442   0.07432   0.16232   0.12542
H          H       0.68803   0.18292   0.27377   0.10470
H          H       0.14199   0.74010   0.06005   0.10817
H          H       0.72371   0.37551   0.00652   0.10487
H          H       0.40799   0.02329   0.10326   0.11669
H          H       0.58841   0.82441   0.96309   0.10228
C          C       0.04096   0.38864   0.56444   0.08926
C          C       0.07450   0.27905   0.54900  -0.18157
C          C       0.20486   0.28548   0.57772   0.16899
C          C       0.29803   0.40655   0.62094  -0.18856
C          C       0.25860   0.51322   0.63378   0.08809
C          C       0.23760   0.16453   0.56307  -0.20540
C          C       0.14809   0.06048   0.60061  -0.21019
C          C       0.19121   0.23449   0.77052   0.09143
C          C       0.12992   0.17431   0.70939  -0.19188
C          C       0.20444   0.11687   0.66796   0.18563
C          C       0.33855   0.12034   0.69167  -0.18627
C          C       0.39334   0.18133   0.75336   0.07865
C          C       0.55435   0.63535   0.53328  -0.10462
C          C       0.63991   0.56464   0.53698  -0.04057
C          C       0.58434   0.42887   0.50355  -0.10394
C          C       0.79202   0.63632   0.57472   0.55324
C          C       0.56581   0.01414   0.55807  -0.10609
C          C       0.41631   0.91574   0.53725  -0.03106
C          C       0.35152   0.90212   0.47887  -0.10125
C          C       0.32528   0.83084   0.57862   0.54669
C          C       0.65258   0.61120   0.93560   0.08988
C          C       0.79556   0.72078   0.95101  -0.18249
C          C       0.91938   0.71441   0.92218   0.16973
C          C       0.89149   0.59349   0.87880  -0.18894
C          C       0.74553   0.48682   0.86601   0.08779
C          C       0.07290   0.83533   0.93687  -0.20497
C          C       0.08727   0.93938   0.89934  -0.20956
C          C       0.95690   0.76491   0.72949   0.09090
C          C       0.95565   0.82523   0.79059  -0.19087
C          C       0.08752   0.88287   0.83202   0.18478
C          C       0.21818   0.87928   0.80841  -0.18491
C          C       0.21215   0.81820   0.74674   0.07783
C          C       0.91946   0.36469   0.96655  -0.10534
C          C       0.07564   0.43567   0.96294  -0.03895
C          C       0.15526   0.57138   0.99651  -0.10472
C          C       0.15689   0.36451   0.92531   0.55045
C          C       0.55195   0.98557   0.94196  -0.10496
C          C       0.50125   0.08437   0.96273  -0.03263
C          C       0.44991   0.09839   0.02106  -0.10072
C          C       0.49519   0.16913   0.92128   0.54848
C          C       0.95904   0.61137   0.43556   0.08910
C          C       0.92550   0.72095   0.45099  -0.18158
C          C       0.79514   0.71452   0.42228   0.16887
C          C       0.70196   0.59346   0.37905  -0.18854
C          C       0.74140   0.48678   0.36622   0.08823
C          C       0.76240   0.83548   0.43693  -0.20511
C          C       0.85190   0.93952   0.39939  -0.21041
C          C       0.80878   0.76551   0.22947   0.09116
C          C       0.87008   0.82569   0.29061  -0.19190
C          C       0.79556   0.88313   0.33203   0.18567
C          C       0.66144   0.87967   0.30833  -0.18624
C          C       0.60665   0.81867   0.24664   0.07868
C          C       0.44565   0.36465   0.46672  -0.10492
C          C       0.36009   0.43537   0.46302  -0.04019
C          C       0.41566   0.57114   0.49645  -0.10405
C          C       0.20798   0.36369   0.42527   0.55306
C          C       0.43418   0.98587   0.44192  -0.10603
C          C       0.58369   0.08427   0.46275  -0.03092
C          C       0.64847   0.09788   0.52113  -0.10122
C          C       0.67471   0.16916   0.42138   0.54630
C          C       0.34741   0.38880   0.06440   0.08986
C          C       0.20444   0.27922   0.04899  -0.18233
C          C       0.08061   0.28559   0.07781   0.16951
C          C       0.10850   0.40651   0.12119  -0.18880
C          C       0.25446   0.51318   0.13398   0.08765
C          C       0.92709   0.16467   0.06313  -0.20466
C          C       0.91272   0.06062   0.10066  -0.20978
C          C       0.04310   0.23509   0.27051   0.09073
C          C       0.04435   0.17478   0.20940  -0.19083
C          C       0.91248   0.11712   0.16797   0.18466
C          C       0.78181   0.12072   0.19158  -0.18473
C          C       0.78784   0.18180   0.25326   0.07803
C          C       0.08054   0.63532   0.03345  -0.10553
C          C       0.92435   0.56433   0.03706  -0.03887
C          C       0.84474   0.42862   0.00348  -0.10481
C          C       0.84310   0.63549   0.07469   0.55043
C          C       0.44804   0.01443   0.05803  -0.10495
C          C       0.49875   0.91563   0.03727  -0.03268
C          C       0.55009   0.90162   0.97893  -0.10046
C          C       0.50482   0.83087   0.07871   0.54815
N          N       0.13057   0.50451   0.60683  -0.23705
N          N       0.32234   0.23976   0.79241  -0.23319
N          N       0.62633   0.49542   0.89311  -0.23733
N          N       0.08284   0.75977   0.70765  -0.23259
N          N       0.86943   0.49549   0.39317  -0.23707
N          N       0.67766   0.76024   0.20758  -0.23306
N          N       0.37367   0.50459   0.10689  -0.23739
N          N       0.91716   0.24023   0.29235  -0.23272
O          O       0.85286   0.55806   0.58324  -0.57243
O          O       0.85322   0.76228   0.59545  -0.55684
O          O       0.18073   0.76223   0.55965  -0.54406
O          O       0.38686   0.83270   0.62782  -0.55739
O          O       0.29564   0.44325   0.91673  -0.57034
O          O       0.09309   0.23845   0.90474  -0.55633
O          O       0.42018   0.23858   0.94043  -0.54508
O          O       0.55386   0.16644   0.87188  -0.55713
O          O       0.14714   0.44195   0.41676  -0.57215
O          O       0.14677   0.23771   0.40455  -0.55688
O          O       0.81926   0.23777   0.44034  -0.54433
O          O       0.61313   0.16729   0.37217  -0.55683
O          O       0.70435   0.55675   0.08327  -0.57044
O          O       0.90692   0.76156   0.09526  -0.55627
O          O       0.57981   0.76143   0.05956  -0.54487
O          O       0.44612   0.83356   0.12812  -0.55727

