data_crystal

_audit_creation_method 'AiiDA-DDEC plugin'

_cell_length_a        18.81799
_cell_length_b        18.83556
_cell_length_c        23.47602

_cell_angle_alpha     65.80925
_cell_angle_beta     65.79386
_cell_angle_gamma     59.52516

_symmetry_space_group_name_Hall 'P 1'
_symmetry_space_group_name_H-M  'P 1'

loop_
_symmetry_equiv_pos_as_xyz
 'x,y,z'

loop_
_atom_site_label
_atom_site_type_symbol
_atom_site_fract_x
_atom_site_fract_y
_atom_site_fract_z
_atom_site_charge
Zn         Zn      0.75643   0.27171   0.19440   0.98339
Zn         Zn      0.67395   0.33004   0.29709   0.96890
Zn         Zn      0.67530   0.74274   0.30252   0.97524
Zn         Zn      0.22831   0.74376   0.30573   0.98294
Zn         Zn      0.16981   0.82605   0.20290   0.97004
Zn         Zn      0.75717   0.82479   0.19747   0.97446
Zn         Zn      0.24357   0.72829   0.80560   0.98333
Zn         Zn      0.32604   0.66997   0.70291   0.96883
Zn         Zn      0.32470   0.25727   0.69747   0.97528
Zn         Zn      0.77169   0.25625   0.69427   0.98292
Zn         Zn      0.83019   0.17395   0.79710   0.96996
Zn         Zn      0.24283   0.17521   0.80252   0.97433
H          H       0.43117   0.54660   0.24206   0.13866
H          H       0.34407   0.64382   0.07031   0.13895
H          H       0.57968   0.42244   0.08678   0.12893
H          H       0.56501   0.14905   0.41258   0.13485
H          H       0.56580   0.91983   0.41271   0.12941
H          H       0.70015   0.05309   0.24268   0.13652
H          H       0.90669   0.42140   0.07223   0.12909
H          H       0.90991   0.64936   0.06993   0.14115
H          H       0.74548   0.53913   0.23039   0.13896
H          H       0.95332   0.06902   0.25792   0.13882
H          H       0.85631   0.15597   0.42973   0.13894
H          H       0.07737   0.92030   0.41332   0.12862
H          H       0.35083   0.93488   0.08739   0.13550
H          H       0.58025   0.93462   0.08695   0.13004
H          H       0.44692   0.80042   0.25712   0.13660
H          H       0.07875   0.59305   0.42800   0.12930
H          H       0.85037   0.59019   0.43028   0.13776
H          H       0.96071   0.75462   0.27006   0.13521
H          H       0.56883   0.45341   0.75793   0.13702
H          H       0.65592   0.35618   0.92968   0.13568
H          H       0.42032   0.57756   0.91322   0.12898
H          H       0.43499   0.85096   0.58742   0.13481
H          H       0.43420   0.08018   0.58729   0.12967
H          H       0.29985   0.94692   0.75732   0.13634
H          H       0.09331   0.57860   0.92776   0.12924
H          H       0.09009   0.35065   0.93007   0.13763
H          H       0.25452   0.46087   0.76961   0.13904
H          H       0.04668   0.93099   0.74207   0.13875
H          H       0.14369   0.84404   0.57027   0.13549
H          H       0.92263   0.07971   0.58668   0.12887
H          H       0.64917   0.06513   0.91261   0.13503
H          H       0.41975   0.06539   0.91305   0.12990
H          H       0.55308   0.19958   0.74288   0.13683
H          H       0.92125   0.40696   0.57200   0.12932
H          H       0.14963   0.40982   0.56972   0.13784
H          H       0.03929   0.24538   0.72994   0.13500
C          C       0.58042   0.41485   0.20422   0.59932
C          C       0.51274   0.47784   0.16854  -0.03320
C          C       0.44001   0.54253   0.19461  -0.08461
C          C       0.37904   0.60264   0.15941  -0.03653
C          C       0.39051   0.59732   0.09824  -0.13491
C          C       0.46240   0.53152   0.07256   0.15391
C          C       0.52373   0.47227   0.10760  -0.12459
C          C       0.66441   0.17988   0.28848   0.59748
C          C       0.63513   0.10914   0.32348  -0.03745
C          C       0.58465   0.10208   0.38752  -0.12490
C          C       0.55979   0.03363   0.42014   0.15117
C          C       0.58494   0.97278   0.38782  -0.12237
C          C       0.63497   0.98043   0.32395  -0.03222
C          C       0.66043   0.04813   0.29196  -0.08371
C          C       0.66394   0.91531   0.28947   0.59672
C          C       0.78678   0.40679   0.18436   0.59788
C          C       0.82157   0.47364   0.15419  -0.03293
C          C       0.88356   0.47123   0.09551  -0.12783
C          C       0.91653   0.53361   0.06645   0.15287
C          C       0.88535   0.60017   0.09425  -0.13486
C          C       0.82409   0.60198   0.15360  -0.03788
C          C       0.79273   0.53818   0.18405  -0.08185
C          C       0.79242   0.67211   0.18393   0.59847
C          C       0.30377   0.67238   0.18815   0.59907
C          C       0.08524   0.91973   0.29575   0.59959
C          C       0.02214   0.98735   0.33147  -0.03304
C          C       0.95745   0.06007   0.30539  -0.08522
C          C       0.89736   0.12100   0.34063  -0.03677
C          C       0.90269   0.10954   0.40179  -0.13450
C          C       0.96843   0.03765   0.42749   0.15351
C          C       0.02765   0.97633   0.39245  -0.12429
C          C       0.32017   0.83556   0.21140   0.59732
C          C       0.39079   0.86508   0.17641  -0.03705
C          C       0.39786   0.91542   0.11239  -0.12586
C          C       0.46636   0.94029   0.07979   0.15167
C          C       0.52729   0.91538   0.11202  -0.12255
C          C       0.51956   0.86547   0.17592  -0.03266
C          C       0.45182   0.84003   0.20785  -0.08443
C          C       0.58455   0.83633   0.21063   0.59758
C          C       0.09309   0.71344   0.31604   0.59812
C          C       0.02634   0.67850   0.34617  -0.03215
C          C       0.02882   0.61637   0.40472  -0.12765
C          C       0.96624   0.58358   0.43370   0.15217
C          C       0.89958   0.61480   0.40592  -0.13125
C          C       0.89792   0.67603   0.34658  -0.03750
C          C       0.96175   0.70736   0.31634  -0.07960
C          C       0.82803   0.70792   0.31591   0.59767
C          C       0.82756   0.19622   0.31197   0.59977
C          C       0.41958   0.58516   0.79577   0.59896
C          C       0.48726   0.52216   0.83146  -0.03296
C          C       0.55999   0.45747   0.80538  -0.08305
C          C       0.62096   0.39737   0.84059  -0.03621
C          C       0.60949   0.40269   0.90176  -0.13248
C          C       0.53760   0.46848   0.92744   0.15404
C          C       0.47627   0.52774   0.89240  -0.12459
C          C       0.33559   0.82013   0.71152   0.59772
C          C       0.36487   0.89087   0.67652  -0.03753
C          C       0.41535   0.89793   0.61248  -0.12487
C          C       0.44021   0.96637   0.57986   0.15112
C          C       0.41506   0.02722   0.61217  -0.12232
C          C       0.36503   0.01957   0.67605  -0.03230
C          C       0.33957   0.95188   0.70803  -0.08370
C          C       0.33606   0.08469   0.71053   0.59681
C          C       0.21322   0.59322   0.81563   0.59786
C          C       0.17843   0.52637   0.84580  -0.03297
C          C       0.11644   0.52878   0.90448  -0.12791
C          C       0.08347   0.46639   0.93355   0.15308
C          C       0.11465   0.39983   0.90575  -0.13220
C          C       0.17591   0.39803   0.84640  -0.03785
C          C       0.20727   0.46183   0.81595  -0.08173
C          C       0.20758   0.32789   0.81606   0.59883
C          C       0.69623   0.32762   0.81184   0.59896
C          C       0.91476   0.08027   0.70424   0.59953
C          C       0.97786   0.01266   0.66853  -0.03285
C          C       0.04255   0.93993   0.69461  -0.08545
C          C       0.10264   0.87901   0.65937  -0.03673
C          C       0.09731   0.89047   0.59820  -0.13144
C          C       0.03157   0.96236   0.57251   0.15386
C          C       0.97235   0.02368   0.60755  -0.12448
C          C       0.67983   0.16444   0.78860   0.59730
C          C       0.60921   0.13493   0.82359  -0.03730
C          C       0.60214   0.08459   0.88761  -0.12516
C          C       0.53364   0.05972   0.92020   0.15152
C          C       0.47271   0.08463   0.88797  -0.12263
C          C       0.48044   0.13453   0.82407  -0.03252
C          C       0.54818   0.15998   0.79215  -0.08430
C          C       0.41545   0.16368   0.78937   0.59729
C          C       0.90691   0.28657   0.68396   0.59815
C          C       0.97366   0.32151   0.65383  -0.03221
C          C       0.97118   0.38364   0.59527  -0.12743
C          C       0.03376   0.41643   0.56629   0.15193
C          C       0.10042   0.38521   0.59408  -0.13111
C          C       0.10208   0.32397   0.65342  -0.03746
C          C       0.03825   0.29265   0.68366  -0.07975
C          C       0.17197   0.29208   0.68409   0.59756
C          C       0.17244   0.80379   0.68803   0.59970
N          N       0.46756   0.53078   0.01067  -0.12308
N          N       0.50966   0.03209   0.48527  -0.12379
N          N       0.98133   0.53469   0.00837  -0.11853
N          N       0.96922   0.03247   0.48935  -0.12284
N          N       0.46791   0.99029   0.01469  -0.12416
N          N       0.96521   0.51878   0.49171  -0.11876
N          N       0.53244   0.46923   0.98933  -0.12337
N          N       0.49034   0.96791   0.51472  -0.12402
N          N       0.01867   0.46532   0.99162  -0.11898
N          N       0.03078   0.96753   0.51065  -0.12299
N          N       0.53209   0.00971   0.98531  -0.12423
N          N       0.03479   0.48122   0.50828  -0.11852
O          O       0.64446   0.36052   0.17445  -0.56734
O          O       0.57114   0.41913   0.26016  -0.53580
O          O       0.71438   0.17918   0.23134  -0.53379
O          O       0.63807   0.23542   0.31856  -0.56082
O          O       0.80775   0.35715   0.15031  -0.53094
O          O       0.73862   0.40445   0.24181  -0.55831
O          O       0.29564   0.66451   0.24695  -0.57811
O          O       0.25375   0.73467   0.15359  -0.53256
O          O       0.71178   0.92479   0.23145  -0.53291
O          O       0.63973   0.85453   0.32054  -0.56281
O          O       0.81593   0.73403   0.15081  -0.53406
O          O       0.74354   0.66543   0.24091  -0.56926
O          O       0.13973   0.85584   0.32548  -0.56762
O          O       0.08090   0.92895   0.23986  -0.53616
O          O       0.32097   0.78569   0.26852  -0.53290
O          O       0.26472   0.86161   0.18126  -0.56097
O          O       0.14288   0.69239   0.35004  -0.53079
O          O       0.09514   0.76186   0.25873  -0.55844
O          O       0.83548   0.20447   0.25311  -0.57868
O          O       0.76518   0.24606   0.34660  -0.53190
O          O       0.57489   0.78874   0.26870  -0.53300
O          O       0.64562   0.86016   0.17950  -0.56211
O          O       0.76580   0.68475   0.34905  -0.53404
O          O       0.83504   0.75643   0.25886  -0.56717
O          O       0.35554   0.63949   0.82554  -0.56724
O          O       0.42886   0.58088   0.73984  -0.53556
O          O       0.28562   0.82083   0.76865  -0.53394
O          O       0.36193   0.76459   0.68144  -0.56090
O          O       0.19225   0.64285   0.84968  -0.53096
O          O       0.26138   0.59556   0.75818  -0.55826
O          O       0.70436   0.33550   0.75304  -0.57757
O          O       0.74625   0.26534   0.84641  -0.53263
O          O       0.28822   0.07522   0.76855  -0.53325
O          O       0.36027   0.14547   0.67946  -0.56259
O          O       0.18407   0.26597   0.84918  -0.53427
O          O       0.25646   0.33457   0.75908  -0.56905
O          O       0.86027   0.14416   0.67451  -0.56735
O          O       0.91910   0.07106   0.76014  -0.53645
O          O       0.67903   0.21432   0.73147  -0.53271
O          O       0.73528   0.13839   0.81873  -0.56109
O          O       0.85712   0.30761   0.64996  -0.53055
O          O       0.90486   0.23815   0.74127  -0.55867
O          O       0.16452   0.79553   0.74689  -0.57866
O          O       0.23482   0.75395   0.65340  -0.53166
O          O       0.42511   0.21126   0.73129  -0.53262
O          O       0.35438   0.13984   0.82049  -0.56225
O          O       0.23420   0.31525   0.65094  -0.53366
O          O       0.16496   0.24357   0.74114  -0.56736

