data_crystal

_audit_creation_method 'AiiDA-DDEC plugin'

_cell_length_a         4.73769
_cell_length_b        21.70394
_cell_length_c        21.67476

_cell_angle_alpha     90.03129
_cell_angle_beta     90.38944
_cell_angle_gamma     89.74341

_symmetry_space_group_name_Hall 'P 1'
_symmetry_space_group_name_H-M  'P 1'

loop_
_symmetry_equiv_pos_as_xyz
 'x,y,z'

loop_
_atom_site_label
_atom_site_type_symbol
_atom_site_fract_x
_atom_site_fract_y
_atom_site_fract_z
_atom_site_charge
Cd         Cd      0.95451   0.33138   0.75807   1.01784
Cd         Cd      0.96227   0.16791   0.74297   1.01988
Cd         Cd      0.46561   0.24242   0.83234   1.02239
Cd         Cd      0.45415   0.25682   0.66920   1.01600
Cd         Cd      0.04551   0.66862   0.24193   1.01798
Cd         Cd      0.03775   0.83209   0.25703   1.01984
Cd         Cd      0.53441   0.75758   0.16766   1.02235
Cd         Cd      0.54587   0.74317   0.33080   1.01606
H          H       0.48290   0.35820   0.77168   0.36400
H          H       0.14906   0.48845   0.93365   0.10339
H          H       0.02215   0.57942   0.99559   0.11300
H          H       0.27193   0.60612   0.88743   0.12751
H          H       0.39241   0.51204   0.82651   0.11604
H          H       0.82688   0.63044   0.07026   0.12278
H          H       0.11277   0.74190   0.03898   0.11659
H          H       0.49121   0.13859   0.72981   0.35445
H          H       0.13412   0.01193   0.56751   0.10287
H          H       0.01674   0.92093   0.50424   0.11080
H          H       0.26922   0.89028   0.60944   0.12879
H          H       0.37967   0.98430   0.67175   0.11804
H          H       0.81882   0.87081   0.42673   0.12219
H          H       0.10837   0.75874   0.45692   0.11794
H          H      -0.00379   0.22895   0.85960   0.35230
H          H       0.63790   0.06794   0.98849   0.10294
H          H       0.52121   0.00390   0.07832   0.11217
H          H       0.76839   0.10908   0.10905   0.12798
H          H       0.87662   0.17197   0.01593   0.11729
H          H       0.32935   0.92636   0.13013   0.12492
H          H       0.61930   0.95833   0.24165   0.11815
H          H       0.98156   0.27211   0.64175   0.35646
H          H       0.63727   0.43368   0.51194   0.10343
H          H       0.50905   0.49616   0.42121   0.11143
H          H       0.76034   0.38943   0.39283   0.12803
H          H       0.88424   0.32781   0.48677   0.11674
H          H       0.31448   0.57140   0.37141   0.12152
H          H       0.59857   0.54306   0.25903   0.11618
H          H       0.51712   0.64179   0.22832   0.36432
H          H       0.85095   0.51155   0.06635   0.10305
H          H       0.97787   0.42057   0.00441   0.11288
H          H       0.72809   0.39388   0.11258   0.12779
H          H       0.60760   0.48796   0.17350   0.11614
H          H       0.17314   0.36956   0.92974   0.12249
H          H       0.88724   0.25809   0.96102   0.11675
H          H       0.50880   0.86140   0.27019   0.35415
H          H       0.86589   0.98807   0.43249   0.10282
H          H       0.98329   0.07906   0.49576   0.11074
H          H       0.73079   0.10972   0.39056   0.12887
H          H       0.62034   0.01570   0.32825   0.11817
H          H       0.18120   0.12919   0.57328   0.12216
H          H       0.89165   0.24125   0.54309   0.11793
H          H       0.00381   0.77104   0.14041   0.35215
H          H       0.36212   0.93206   0.01152   0.10276
H          H       0.47882   0.99610   0.92168   0.11176
H          H       0.23163   0.89092   0.89095   0.12812
H          H       0.12340   0.82802   0.98407   0.11759
H          H       0.67066   0.07363   0.86987   0.12480
H          H       0.38071   0.04167   0.75835   0.11833
H          H       0.01845   0.72789   0.35825   0.35652
H          H       0.36275   0.56631   0.48806   0.10328
H          H       0.49097   0.50384   0.57879   0.11152
H          H       0.23968   0.61056   0.60717   0.12811
H          H       0.11579   0.67218   0.51323   0.11673
H          H       0.68554   0.42860   0.62859   0.12145
H          H       0.40145   0.45694   0.74097   0.11627
C          C       0.83277   0.43567   0.84068   0.55275
C          C       0.77987   0.49460   0.87454  -0.06173
C          C       0.95987   0.51426   0.92235  -0.07761
C          C       0.88041   0.56365   0.95967  -0.17100
C          C       0.62775   0.59436   0.94931   0.12933
C          C       0.45605   0.57872   0.89862  -0.14599
C          C       0.53513   0.52840   0.86230  -0.06034
C          C       0.65620   0.65512   0.04766   0.06883
C          C       0.28046   0.70840   0.03221   0.10600
C          C       0.79835   0.06217   0.66212   0.54961
C          C       0.76153   0.00457   0.62476  -0.06100
C          C       0.94463   0.98618   0.57745  -0.07633
C          C       0.87161   0.93667   0.53934  -0.17000
C          C       0.62186   0.90495   0.54828   0.12484
C          C       0.44898   0.91888   0.59883  -0.14610
C          C       0.52229   0.96908   0.63577  -0.06239
C          C       0.64807   0.84607   0.44854   0.07414
C          C       0.27653   0.79204   0.46348   0.10680
C          C       0.30162   0.16200   0.93758   0.55204
C          C       0.26358   0.12541   0.99561  -0.06150
C          C       0.44764   0.07782   0.01397  -0.07725
C          C       0.37491   0.03928   0.06291  -0.17181
C          C       0.12487   0.04818   0.09443   0.12503
C          C       0.94964   0.09881   0.08064  -0.14577
C          C       0.02249   0.13611   0.03077  -0.05949
C          C       0.15706   0.94877   0.15406   0.07161
C          C       0.78484   0.96442   0.20784   0.10520
C          C       0.31294   0.33910   0.56364   0.55194
C          C       0.26798   0.37525   0.50537  -0.06438
C          C       0.44764   0.42281   0.48621  -0.07479
C          C       0.36748   0.46047   0.43682  -0.17276
C          C       0.11480   0.45085   0.40579   0.12598
C          C       0.94431   0.40021   0.42053  -0.14331
C          C       0.02485   0.36366   0.47072  -0.06204
C          C       0.14181   0.54988   0.34655   0.07389
C          C       0.76772   0.53575   0.29232   0.10988
C          C       0.16725   0.56433   0.15932   0.55289
C          C       0.22014   0.50540   0.12546  -0.06175
C          C       0.04014   0.48574   0.07765  -0.07775
C          C       0.11961   0.43634   0.04033  -0.17111
C          C       0.37226   0.40563   0.05069   0.12950
C          C       0.54396   0.42127   0.10138  -0.14589
C          C       0.46489   0.47160   0.13770  -0.06023
C          C       0.34382   0.34488   0.95234   0.06865
C          C       0.71956   0.29160   0.96779   0.10632
C          C       0.20167   0.93783   0.33789   0.54930
C          C       0.23849   0.99543   0.37524  -0.06100
C          C       0.05538   0.01382   0.42255  -0.07625
C          C       0.12841   0.06333   0.46066  -0.17008
C          C       0.37816   0.09504   0.45172   0.12478
C          C       0.55104   0.08112   0.40117  -0.14632
C          C       0.47772   0.03092   0.36423  -0.06237
C          C       0.35195   0.15393   0.55147   0.07412
C          C       0.72349   0.20796   0.53652   0.10693
C          C       0.69840   0.83799   0.06242   0.55196
C          C       0.73644   0.87458   0.00440  -0.06154
C          C       0.55238   0.92217   0.98604  -0.07722
C          C       0.62511   0.96072   0.93709  -0.17186
C          C       0.87515   0.95182   0.90557   0.12509
C          C       0.05038   0.90118   0.91936  -0.14580
C          C       0.97753   0.86388   0.96923  -0.05936
C          C       0.84296   0.05123   0.84594   0.07132
C          C       0.21518   0.03558   0.79216   0.10493
C          C       0.68706   0.66089   0.43636   0.55222
C          C       0.73205   0.62475   0.49463  -0.06451
C          C       0.55239   0.57718   0.51380  -0.07492
C          C       0.63254   0.53953   0.56318  -0.17266
C          C       0.88522   0.54915   0.59421   0.12599
C          C       0.05571   0.59979   0.57947  -0.14327
C          C       0.97517   0.63634   0.52928  -0.06208
C          C       0.85821   0.45012   0.65346   0.07355
C          C       0.23229   0.46424   0.70768   0.11003
N          N       0.54233   0.64104   0.99125   0.15327
N          N       0.30235   0.67462   0.98109  -0.25612
N          N       0.49178   0.69782   0.07419  -0.31088
N          N       0.53913   0.85866   0.50553   0.15089
N          N       0.30200   0.82468   0.51529  -0.24995
N          N       0.48370   0.80379   0.42147  -0.30856
N          N       0.04471   0.00553   0.14074   0.15274
N          N       0.80730   0.01566   0.17458  -0.25103
N          N      -0.00651   0.92231   0.19657  -0.30926
N          N       0.02927   0.49337   0.35938   0.14985
N          N       0.79012   0.48408   0.32532  -0.25243
N          N       0.97779   0.57723   0.30404  -0.31336
N          N       0.45769   0.35895   0.00875   0.15312
N          N       0.69766   0.32538   0.01891  -0.25584
N          N       0.50824   0.30218   0.92581  -0.31097
N          N       0.46090   0.14133   0.49448   0.15097
N          N       0.69802   0.17531   0.48471  -0.25012
N          N       0.51632   0.19620   0.57853  -0.30847
N          N       0.95531   0.99447   0.85926   0.15268
N          N       0.19272   0.98434   0.82542  -0.25028
N          N       0.00653   0.07769   0.80343  -0.30942
N          N       0.97075   0.50663   0.64062   0.14976
N          N       0.20990   0.51592   0.67468  -0.25255
N          N       0.02223   0.42277   0.69596  -0.31287
O          O       0.04625   0.40279   0.85350  -0.53474
O          O       0.65191   0.42129   0.79879  -0.56325
O          O       0.42582   0.31654   0.75851  -0.91315
O          O       0.01007   0.09731   0.65306  -0.53913
O          O       0.60641   0.07319   0.70106  -0.54445
O          O       0.43556   0.18091   0.74349  -0.92095
O          O       0.51552   0.15303   0.90325  -0.53791
O          O       0.10636   0.20059   0.92565  -0.54424
O          O       0.93781   0.24286   0.81744  -0.91611
O          O       0.52614   0.34962   0.59823  -0.53993
O          O       0.12521   0.29931   0.57561  -0.55325
O          O       0.92821   0.25710   0.68330  -0.91434
O          O       0.95378   0.59720   0.14650  -0.53524
O          O       0.34811   0.57870   0.20121  -0.56308
O          O       0.57419   0.68346   0.24149  -0.91336
O          O       0.98996   0.90268   0.34694  -0.53909
O          O       0.39362   0.92681   0.29895  -0.54403
O          O       0.56447   0.81908   0.25651  -0.92078
O          O       0.48450   0.84697   0.09676  -0.53819
O          O       0.89365   0.79940   0.07435  -0.54385
O          O       0.06220   0.75713   0.18256  -0.91605
O          O       0.47386   0.65038   0.40177  -0.54020
O          O       0.87479   0.70068   0.42438  -0.55328
O          O       0.07181   0.74290   0.31670  -0.91437

