data_crystal

_audit_creation_method 'AiiDA-DDEC plugin'

_cell_length_a        10.34419
_cell_length_b        16.28874
_cell_length_c        20.28225

_cell_angle_alpha     86.78365
_cell_angle_beta     80.40515
_cell_angle_gamma     71.23323

_symmetry_space_group_name_Hall 'P 1'
_symmetry_space_group_name_H-M  'P 1'

loop_
_symmetry_equiv_pos_as_xyz
 'x,y,z'

loop_
_atom_site_label
_atom_site_type_symbol
_atom_site_fract_x
_atom_site_fract_y
_atom_site_fract_z
_atom_site_charge
Ag         Ag      0.77164   0.60830   0.03379   0.24112
Ag         Ag      0.38060   0.39069   0.53375   0.24377
Ag         Ag      0.22837   0.39170   0.96621   0.24103
Ag         Ag      0.61940   0.60931   0.46625   0.24380
H          H       0.26317   0.18610   0.75055   0.12472
H          H       0.13698   0.10273   0.25196   0.16384
H          H       0.09421   0.80697   0.98322   0.13364
H          H       0.45004   0.45766   0.18173   0.11761
H          H       0.95959   0.64861   0.48204   0.12859
H          H       0.65976   0.81224   0.01230   0.10043
H          H       0.24192   0.89845   0.75507   0.16337
H          H       0.47087   0.18606   0.51433   0.10115
H          H       0.46764   0.04478   0.56898   0.13029
H          H       0.64027   0.82512   0.62767   0.17115
H          H       0.75951   0.36263   0.32212   0.12309
H          H       0.20513   0.55381   0.46780   0.08584
H          H       0.91859   0.74604   0.04973   0.08833
H          H       0.46582   0.17278   0.12547   0.17063
H          H       0.95052   0.58044   0.89537   0.08466
H          H       0.60132   0.54947   0.15885   0.07626
H          H       0.66720   0.25296   0.54983   0.08827
H          H       0.51418   0.95425   0.06523   0.12977
H          H       0.15092   0.45019   0.65843   0.07710
H          H       0.49092   0.62961   0.73660   0.14080
H          H       0.90451   0.19262   0.48360   0.13331
H          H       0.90618   0.54198   0.68092   0.11767
H          H       0.60518   0.67919   0.18936   0.07468
H          H       0.12125   0.63711   0.82218   0.12434
H          H       0.44849   0.81510   0.24810   0.12786
H          H       0.28362   0.32108   0.69018   0.07515
H          H       0.75951   0.44672   0.96822   0.08566
H          H       0.60945   0.35210   0.98267   0.12906
H          H       0.53164   0.41891   0.39499   0.08390
H          H       0.12864   0.36914   0.23856   0.14075
H          H       0.73684   0.81389   0.24945   0.12469
H          H       0.54997   0.54233   0.81827   0.11762
H          H       0.35973   0.17488   0.37233   0.17125
H          H       0.09550   0.80737   0.51640   0.13310
H          H       0.90579   0.19302   0.01678   0.13376
H          H       0.79488   0.44618   0.53220   0.08588
H          H       0.39868   0.45053   0.84115   0.07629
H          H       0.53237   0.95521   0.43102   0.13015
H          H       0.34025   0.18775   0.98770   0.10049
H          H       0.08141   0.25396   0.95027   0.08832
H          H       0.24050   0.55327   0.03178   0.08565
H          H       0.71638   0.67892   0.30983   0.07522
H          H       0.04041   0.35138   0.51796   0.12869
H          H       0.87137   0.63085   0.76144   0.14080
H          H       0.52913   0.81394   0.48567   0.10118
H          H       0.55151   0.18489   0.75190   0.12780
H          H       0.48582   0.04574   0.93478   0.13003
H          H       0.39483   0.32080   0.81065   0.07443
H          H       0.46837   0.58108   0.60501   0.08403
H          H       0.09382   0.45802   0.31908   0.11762
H          H       0.04948   0.41956   0.10463   0.08452
H          H       0.87875   0.36288   0.17782   0.12433
H          H       0.50908   0.37038   0.26340   0.14056
H          H       0.24050   0.63737   0.67789   0.12322
H          H       0.86303   0.89726   0.74804   0.16379
H          H       0.75808   0.10154   0.24493   0.16352
H          H       0.53419   0.82721   0.87453   0.17057
H          H       0.33281   0.74703   0.45017   0.08820
H          H       0.84908   0.54980   0.34158   0.07696
H          H       0.39055   0.64789   0.01734   0.12900
C          C       0.76683   0.65735   0.58996   0.45613
C          C       0.74374   0.33746   0.37246  -0.14214
C          C       0.47660   0.69676   0.72250  -0.32041
C          C       0.90943   0.60226   0.58225  -0.03699
C          C       0.10502   0.49496   0.62059   0.04108
C          C      -0.00100   0.60489   0.52181  -0.13684
C          C       0.12314   0.72597   0.89756  -0.01414
C          C       0.42628   0.34291   0.09076   0.45459
C          C       0.31030   0.18441   0.69835  -0.14775
C          C       0.60509   0.39551   0.02241  -0.13576
C          C       0.30577   0.13080   0.18577   0.29641
C          C       0.56007   0.80658   0.66057  -0.31428
C          C       0.57679   0.71996   0.67759   0.30227
C          C       0.82339   0.24237   0.46280  -0.14539
C          C       0.43808   0.86904   0.68829   0.29792
C          C       0.30091   0.27866   0.17792   0.30239
C          C       0.36785   0.19227   0.15902  -0.31075
C          C       0.23082   0.75914   0.86002   0.48866
C          C       0.49413   0.81601   0.19587  -0.15188
C          C       0.13489   0.55207   0.51375   0.04904
C          C       0.07951   0.66240   0.87239  -0.14373
C          C       0.12281   0.23819   0.25046   0.29225
C          C       0.68765   0.44827   0.01418   0.04689
C          C       0.36659   0.10463   0.66491  -0.00964
C          C       0.51342   0.39786   0.08298  -0.03517
C          C       0.32175   0.25885   0.66455   0.05328
C          C       0.51646   0.45337   0.13373  -0.17218
C          C       0.42851   0.18308   0.56697   0.08745
C          C       0.42456   0.10488   0.59717  -0.14236
C          C       0.60066   0.50491   0.12105   0.04326
C          C       0.96867   0.54639   0.63304  -0.17112
C          C       0.36629   0.02492   0.70391   0.50427
C          C       0.58089   0.74112   0.16305   0.05623
C          C       0.53014   0.89444   0.09396  -0.14250
C          C       0.98456   0.63067   0.91300   0.05966
C          C       0.61316   0.81579   0.06476   0.08759
C          C       0.47054   0.89538   0.16154  -0.01093
C          C       0.85221   0.27408   0.39772  -0.01497
C          C       0.17869   0.30209   0.22368  -0.31983
C          C       0.96713   0.72321  -0.00056   0.04887
C          C       0.18328   0.15154   0.23166  -0.31539
C          C       0.06289   0.75737   0.96265  -0.14563
C          C       0.39013   0.97513   0.20010   0.50206
C          C       0.35874   0.76162   0.75057   0.29345
C          C       0.99315   0.24093   0.35995   0.49033
C          C       0.33516   0.84873   0.73360  -0.31868
C          C       0.61659   0.36899   0.41302   0.06070
C          C       0.69295   0.27620   0.49959   0.04971
C          C       0.57544   0.89512   0.40283  -0.14233
C          C       0.42322   0.28004   0.32241   0.30248
C          C       0.43994   0.19341   0.33943  -0.31439
C          C       0.87687   0.27402   0.10244  -0.01403
C          C       0.69423   0.86919   0.81423   0.29664
C          C       0.68971   0.81558   0.30165  -0.14777
C          C       0.86512   0.44792   0.48625   0.04910
C          C       0.63372   0.97507   0.29610   0.50421
C          C       0.03288   0.27679   0.00056   0.04895
C          C       0.09057   0.39774   0.41775  -0.03702
C          C       0.93712   0.24263   0.03735  -0.14574
C          C       0.63342   0.89536   0.33510  -0.00973
C          C       0.39492   0.60449   0.97759  -0.13578
C          C       0.14780   0.72591   0.60228  -0.01511
C          C       0.89498   0.50503   0.37942   0.04088
C          C       0.00100   0.39511   0.47819  -0.13660
C          C       0.67826   0.74114   0.33545   0.05355
C          C       0.50587   0.18399   0.80414  -0.15201
C          C       0.57149   0.81692   0.43303   0.08741
C          C       0.60988   0.02486   0.79990   0.50191
C          C       0.41912   0.25887   0.83695   0.05622
C          C       0.46986   0.10556   0.90604  -0.14266
C          C       0.87720   0.76181   0.74954   0.29219
C          C       0.39935   0.49509   0.87896   0.04326
C          C       0.56193   0.13096   0.31171   0.29788
C          C       0.76919   0.24086   0.13998   0.48868
C          C       0.63216   0.80772   0.84098  -0.31095
C          C       0.30706   0.72380   0.50041   0.04953
C          C       0.66484   0.15126   0.26640  -0.31862
C          C       0.48355   0.54663   0.86627  -0.17219
C          C       0.38341   0.63100   0.58698   0.06086
C          C       0.25626   0.66253   0.62754  -0.14210
C          C       0.52947   0.10461   0.83846  -0.01068
C          C       0.38685   0.18421   0.93524   0.08777
C          C       0.82131   0.69790   0.77632  -0.31955
C          C       0.31236   0.55172   0.98582   0.04693
C          C       0.00686   0.75906   0.64005   0.49045
C          C       0.52341   0.30323   0.27750  -0.32047
C          C       0.57373   0.65709   0.90924   0.45450
C          C       0.69909   0.72133   0.82208   0.30243
C          C       0.81673   0.84846   0.76835  -0.31557
C          C       0.92049   0.33759   0.12761  -0.14378
C          C       0.03134   0.45361   0.36696  -0.17111
C          C       0.17661   0.75762   0.53720  -0.14533
C          C       0.64127   0.23837   0.24943   0.29355
C          C       0.23318   0.34265   0.41005   0.45606
C          C       0.48658   0.60214   0.91702  -0.03515
C          C       0.01544   0.36933   0.08700   0.05970
N          N       0.92840   0.65928   0.97612  -0.19684
N          N       0.19038   0.49526   0.56160  -0.21853
N          N       0.58943   0.34032   0.47625  -0.19883
N          N       0.38161   0.25942   0.60008  -0.22197
N          N       0.68611   0.50465   0.06202  -0.21615
N          N       0.64234   0.73984   0.09871  -0.22252
N          N       0.41057   0.65968   0.52376  -0.19875
N          N       0.07160   0.34072   0.02388  -0.19692
N          N       0.31389   0.49534   0.93798  -0.21608
N          N       0.61840   0.74058   0.39992  -0.22186
N          N       0.35766   0.26015   0.90129  -0.22268
N          N       0.80963   0.50474   0.43840  -0.21862
O          O       0.42251   0.95305   0.66320  -0.24445
O          O       0.37037   0.04722   0.15926  -0.24546
O          O       0.35520   0.34508   0.15648  -0.26339
O          O       0.09632   0.19884   0.38330  -0.44019
O          O       0.25848   0.73465   0.79316  -0.26463
O          O       0.69675   0.65330   0.65534  -0.26604
O          O       0.34948   0.97643   0.26023  -0.44450
O          O       0.32396   0.02353   0.76369  -0.44382
O          O       0.40911   0.30100   0.04593  -0.47540
O          O       0.99520   0.26557   0.29303  -0.26535
O          O       0.70753   0.70043   0.54527  -0.47632
O          O       0.29111   0.80085   0.88366  -0.43843
O          O       0.74152   0.26535   0.20684  -0.26469
O          O       0.70889   0.19914   0.11634  -0.43839
O          O       0.64480   0.65492   0.84352  -0.26323
O          O       0.65052   0.02356   0.73977  -0.44453
O          O       0.62963   0.95278   0.84074  -0.24543
O          O       0.57749   0.04694   0.33680  -0.24428
O          O       0.67605   0.97646   0.23631  -0.44387
O          O       0.90368   0.80115   0.61671  -0.44054
O          O       0.29248   0.29957   0.45473  -0.47605
O          O       0.59090   0.69900   0.95407  -0.47541
O          O       0.30326   0.34670   0.34466  -0.26641
O          O       0.00481   0.73443   0.70697  -0.26514

