data_crystal

_audit_creation_method 'AiiDA-DDEC plugin'

_cell_length_a        11.86459
_cell_length_b        11.06806
_cell_length_c        15.93809

_cell_angle_alpha     89.89981
_cell_angle_beta     87.72253
_cell_angle_gamma     89.89152

_symmetry_space_group_name_Hall 'P 1'
_symmetry_space_group_name_H-M  'P 1'

loop_
_symmetry_equiv_pos_as_xyz
 'x,y,z'

loop_
_atom_site_label
_atom_site_type_symbol
_atom_site_fract_x
_atom_site_fract_y
_atom_site_fract_z
_atom_site_charge
Mo         Mo      0.92093   0.61603   0.02851   0.92492
Mo         Mo      0.50094   0.37260   0.45707   1.31777
Mo         Mo      0.10957   0.14937   0.98204   0.70759
Mo         Mo      0.45872   0.85297   0.50693   0.65681
Mo         Mo      0.11154   0.35143   0.98086   0.71271
Mo         Mo      0.45993   0.64624   0.50697   0.65421
Mo         Mo      0.92035   0.88685   0.02856   0.92216
Mo         Mo      0.50037   0.12547   0.45813   1.28998
H          H       0.80406   0.56537   0.81098   0.03709
H          H       0.17391   0.55766   0.60200   0.12094
H          H       0.00119   0.67108   0.74324   0.11447
H          H       0.99410   0.94523   0.60746   0.09298
H          H       0.99556   0.86794   0.50985   0.10070
H          H       0.80163   0.94496   0.55027   0.07357
H          H       0.81974   0.94738   0.70052   0.09219
H          H       0.69857   0.86102   0.67610   0.13040
H          H       0.47598   0.43573   0.69716   0.06552
H          H       0.84898   0.44295   0.89616   0.11479
H          H       0.67997   0.33023   0.75557   0.11144
H          H       0.66955   0.05575   0.89325   0.09981
H          H       0.66904   0.13444   0.98980   0.10680
H          H       0.47554   0.05796   0.95739   0.06256
H          H       0.49972   0.05399   0.80733   0.09665
H          H       0.37663   0.14048   0.83535   0.12909
H          H       0.15565   0.05940   0.20465   0.11113
H          H       0.81863   0.06361   0.42257   0.05941
H          H       0.95662   0.17078   0.29984   0.11530
H          H       0.96843   0.44759   0.43738   0.09330
H          H       0.96728   0.36707   0.53332   0.10417
H          H       0.15975   0.44684   0.48817   0.06560
H          H       0.13276   0.44617   0.33710   0.09805
H          H       0.25830   0.36719   0.36009   0.12378
H          H       0.57466   0.94309   0.29970   0.11837
H          H       0.20830   0.94222   0.08550   0.10286
H          H       0.38497   0.83237   0.21564   0.11728
H          H       0.38862   0.55395   0.07972   0.09815
H          H       0.38881   0.63306   0.98272   0.10462
H          H       0.58224   0.55449   0.01361   0.07005
H          H       0.55871   0.55518   0.16791   0.10126
H          H       0.68361   0.63395   0.13398   0.10465
H          H       0.15700   0.44196   0.20412   0.11064
H          H       0.81984   0.44025   0.41970   0.05935
H          H       0.95643   0.33078   0.29903   0.11440
H          H       0.96883   0.05624   0.43915   0.09285
H          H       0.96758   0.13811   0.53439   0.10483
H          H       0.16034   0.05781   0.49012   0.06517
H          H       0.13386   0.05595   0.33889   0.09855
H          H       0.25880   0.13560   0.36127   0.12411
H          H       0.58151   0.55899   0.30013   0.11866
H          H       0.20738   0.55906   0.08559   0.10325
H          H       0.38439   0.67207   0.21751   0.11744
H          H       0.38920   0.94504   0.07628   0.09660
H          H       0.38923   0.86303   0.98067   0.10595
H          H       0.58293   0.94120   0.01012   0.07065
H          H       0.56065   0.94551   0.16464   0.10088
H          H       0.68447   0.86395   0.13156   0.10630
H          H       0.80378   0.93718   0.81016   0.03654
H          H       0.17427   0.94124   0.60287   0.12051
H          H       0.00113   0.83109   0.74255   0.11407
H          H       0.99358   0.55555   0.60825   0.09383
H          H       0.99521   0.63254   0.51037   0.10054
H          H       0.80107   0.55697   0.55102   0.07453
H          H       0.82009   0.55500   0.70133   0.09202
H          H       0.69854   0.64138   0.67688   0.13017
H          H       0.48287   0.06227   0.69907   0.06693
H          H       0.84960   0.05938   0.89375   0.11543
H          H       0.68049   0.16992   0.75646   0.11084
H          H       0.66819   0.44657   0.89148   0.10111
H          H       0.66811   0.36900   0.98875   0.10577
H          H       0.47420   0.44446   0.95546   0.06162
H          H       0.49857   0.44620   0.80537   0.09647
H          H       0.37598   0.35972   0.83425   0.12740
H          H       0.82484   0.75071   0.46861   0.09249
H          H       0.70053   0.75128   0.53443   0.12010
H          H       0.49566   0.25187   0.03810   0.09351
H          H       0.37239   0.25107   0.97754   0.11353
H          H       0.14821   0.25291   0.57098   0.09760
H          H       0.26713   0.25232   0.50022   0.05602
H          H       0.56715   0.74665   0.93218   0.09572
H          H       0.68686   0.74729   0.99498   0.12585
C          C       0.81810   0.64068   0.85303   0.14447
C          C       0.20160   0.65021   0.59764   0.05284
C          C       0.96353   0.86448   0.57547  -0.27647
C          C       0.83397   0.86276   0.57991   0.06105
C          C       0.79130   0.86269   0.67280  -0.26987
C          C       0.49056   0.36109   0.65368   0.21686
C          C       0.87666   0.35060   0.88519   0.06749
C          C       0.63820   0.13740   0.92568  -0.27553
C          C       0.50863   0.13990   0.92662   0.05956
C          C       0.46928   0.13883   0.83555  -0.27687
C          C       0.16344   0.15149   0.18304   0.06359
C          C       0.76333   0.14144   0.43265   0.20007
C          C      -0.00241   0.36458   0.46727  -0.27958
C          C       0.12748   0.36393   0.45999   0.05675
C          C       0.16578   0.36434   0.36666  -0.26705
C          C       0.57882   0.85022   0.32021   0.07871
C          C       0.18008   0.84969   0.09020   0.05935
C          C       0.41998   0.63534   0.04676  -0.27798
C          C       0.54985   0.63624   0.04481   0.05308
C          C       0.59091   0.63619   0.13506  -0.27144
C          C       0.16405   0.34978   0.18273   0.06024
C          C       0.76355   0.36350   0.43036   0.19650
C          C      -0.00217   0.13963   0.46831  -0.28010
C          C       0.12779   0.14024   0.46105   0.05790
C          C       0.16626   0.13836   0.36771  -0.26832
C          C       0.58192   0.65197   0.32036   0.07752
C          C       0.17972   0.65187   0.09034   0.06250
C          C       0.42041   0.86254   0.04473  -0.27767
C          C       0.55027   0.86073   0.04286   0.05426
C          C       0.59175   0.86305   0.13306  -0.27282
C          C       0.81785   0.86211   0.85272   0.14499
C          C       0.20173   0.84855   0.59829   0.05532
C          C       0.96313   0.63638   0.57596  -0.27853
C          C       0.83363   0.63905   0.58031   0.06121
C          C       0.79126   0.63954   0.67325  -0.26941
C          C       0.49268   0.13669   0.65472   0.21465
C          C       0.87691   0.15200   0.88399   0.06758
C          C       0.63742   0.36521   0.92461  -0.27491
C          C       0.50787   0.36221   0.92549   0.05920
C          C       0.46861   0.36170   0.83438  -0.27416
C          C       0.83797   0.75111   0.71863   0.24344
C          C       0.96865   0.75090   0.71095  -0.31938
C          C       0.00829   0.75029   0.61813   0.24729
C          C       0.79262   0.75102   0.53428  -0.24585
C          C       0.51676   0.24995   0.78715   0.24105
C          C       0.64662   0.25031   0.78920  -0.31962
C          C       0.68374   0.25112   0.88036   0.24978
C          C       0.46482   0.25135   0.97395  -0.24644
C          C       0.11996   0.25102   0.32445   0.24662
C          C       0.98920   0.25103   0.33133  -0.32128
C          C       0.94853   0.25184   0.42457   0.24006
C          C       0.17405   0.25243   0.50393  -0.21698
C          C       0.54733   0.75055   0.17993   0.25804
C          C       0.41639   0.75131   0.18244  -0.31967
C          C       0.37523   0.74985   0.09174   0.24949
C          C       0.59446   0.74762   0.99733  -0.22900
N          N       0.84223   0.61814   0.93129  -0.62304
N          N       0.30692   0.68576   0.57680  -0.19570
N          N       0.50411   0.38711   0.57504  -0.68597
N          N       0.98295   0.31438   0.89236  -0.20019
N          N       0.17499   0.18669   0.10239  -0.22139
N          N       0.65606   0.12690   0.44269  -0.62469
N          N       0.57182   0.81401   0.40009  -0.20277
N          N       0.07319   0.81396   0.08400  -0.19972
N          N       0.17559   0.31445   0.10216  -0.22320
N          N       0.65629   0.38034   0.43899  -0.62624
N          N       0.57366   0.68772   0.40021  -0.19780
N          N       0.07302   0.68856   0.08432  -0.19661
N          N       0.84257   0.88494   0.93077  -0.62799
N          N       0.30686   0.81270   0.57718  -0.19701
N          N       0.50309   0.11004   0.57603  -0.67932
N          N       0.98301   0.18775   0.89189  -0.20313
N          N       0.81088   0.75135   0.81346  -0.06041
N          N       0.13380   0.74955   0.60922  -0.01714
N          N       0.49005   0.24914   0.69440  -0.08355
N          N       0.80855   0.25136   0.88142  -0.01559
N          N       0.15481   0.25068   0.23372  -0.00686
N          N       0.82047   0.25226   0.43206  -0.08957
N          N       0.58248   0.75115   0.26859  -0.02507
N          N       0.24949   0.75044   0.09219  -0.02144
O          O       0.85243   0.75122   0.08377  -0.67955
O          O       0.47399   0.24869   0.37497  -0.73060
O          O       0.22202   0.24838   0.91865  -0.69063
O          O       0.54104   0.75017   0.58271  -0.62275
O          O       0.00616   0.47337   0.02893  -0.72787
O          O       0.40553   0.50377   0.43368  -0.72389
O          O       0.00200   0.03095   0.03276  -0.72497
O          O       0.40506   0.99429   0.43342  -0.72328

