data_crystal

_audit_creation_method 'AiiDA-DDEC plugin'

_cell_length_a        14.24573
_cell_length_b        20.50013
_cell_length_c        20.13188

_cell_angle_alpha     90.02581
_cell_angle_beta     101.84452
_cell_angle_gamma     90.03553

_symmetry_space_group_name_Hall 'P 1'
_symmetry_space_group_name_H-M  'P 1'

loop_
_symmetry_equiv_pos_as_xyz
 'x,y,z'

loop_
_atom_site_label
_atom_site_type_symbol
_atom_site_fract_x
_atom_site_fract_y
_atom_site_fract_z
_atom_site_charge
Cd         Cd      0.10625   0.04184   0.03598   1.08505
Cd         Cd      0.10647   0.45804   0.53603   1.08561
Cd         Cd      0.89354   0.54196   0.46397   1.08586
Cd         Cd      0.89376   0.95816   0.96402   1.08502
H          H       0.05878   0.20639   0.88434   0.12937
H          H       0.75216   0.43293   0.56774   0.13703
H          H       0.54506   0.00803   0.94753   0.11933
H          H       0.79648   0.39678   0.31228   0.12902
H          H       0.00656   0.29460   0.79941   0.11807
H          H       0.44826   0.78886   0.85174   0.11565
H          H       0.45482   0.50738   0.55226   0.11994
H          H       0.99345   0.70539   0.20059   0.11799
H          H       0.45495   0.99197   0.05247   0.11954
H          H       0.75189   0.06708   0.06761   0.13734
H          H       0.44763   0.71123   0.35153   0.11448
H          H       0.05895   0.29368   0.38468   0.12956
H          H       0.37939   0.18123   0.11567   0.12829
H          H       0.55175   0.21113   0.14826   0.11554
H          H       0.25807   0.69062   0.77316   0.11111
H          H       0.02141   0.82136   0.81349   0.13021
H          H       0.94106   0.70632   0.61533   0.12931
H          H       0.79585   0.10338   0.81170   0.12969
H          H       0.54519   0.49262   0.44774   0.12057
H          H       0.37261   0.52056   0.41653   0.12698
H          H       0.62062   0.81876   0.88433   0.12860
H          H       0.68899   0.20543   0.21533   0.11693
H          H       0.97867   0.32121   0.68607   0.13074
H          H       0.62007   0.68202   0.38396   0.12880
H          H       0.55238   0.28877   0.64847   0.11473
H          H       0.24784   0.56707   0.43226   0.13720
H          H       0.97860   0.17863   0.18651   0.13047
H          H       0.62740   0.47944   0.58347   0.12696
H          H       0.20353   0.60321   0.68772   0.12934
H          H       0.94122   0.79360   0.11566   0.12918
H          H       0.24812   0.93291   0.93239   0.13734
H          H       0.00663   0.20560   0.29952   0.11806
H          H       0.74169   0.19103   0.72658   0.11120
H          H       0.74194   0.30938   0.22684   0.11089
H          H       0.20416   0.89662   0.18830   0.12970
H          H       0.62746   0.02048   0.08331   0.12645
H          H       0.68920   0.29471   0.71551   0.11786
H          H       0.31081   0.70529   0.28449   0.11802
H          H       0.02134   0.67878   0.31393   0.13041
H          H       0.37994   0.31797   0.61604   0.12880
H          H       0.25832   0.80897   0.27342   0.11124
H          H       0.37255   0.97952   0.91669   0.12612
H          H       0.99338   0.79439   0.70048   0.11772
H          H       0.31102   0.79457   0.78467   0.11723
C          C       0.43493   0.14675   0.10955  -0.08944
C          C       0.46818   0.66297   0.37166  -0.13128
C          C       0.83677   0.19886   0.20710   0.07630
C          C       0.69677   0.93232   0.93715   0.52629
C          C       0.03951   0.75251   0.69830  -0.12995
C          C       0.57408   0.44376   0.59109  -0.12354
C          C       0.81068   0.30501   0.26194  -0.13180
C          C       0.22639   0.89699   0.89232  -0.09749
C          C       0.86960   0.24965   0.75731   0.07574
C          C       0.52258   0.96030   0.92654  -0.09616
C          C       0.01007   0.79628   0.15090  -0.08973
C          C       0.09714   0.66621   0.32518  -0.10355
C          C       0.53183   0.33703   0.62834  -0.13113
C          C       0.59304   0.91513   0.91776  -0.00230
C          C       0.26076   0.68219   0.31129  -0.18670
C          C       0.60355   0.38206   0.61945   0.08210
C          C       0.09721   0.83397   0.82503  -0.10265
C          C       0.93026   0.14985   0.85279  -0.00288
C          C       0.98994   0.20371   0.84910  -0.08965
C          C       0.59300   0.58555   0.41776  -0.00181
C          C       0.06956   0.64986   0.64663  -0.00217
C          C       0.30323   0.06768   0.06285   0.52670
C          C       0.94067   0.41597   0.59063   0.57010
C          C       0.39646   0.61794   0.38055   0.08199
C          C       0.13033   0.74950   0.74259   0.07489
C          C       0.18956   0.80482   0.23830  -0.13257
C          C       0.90280   0.16602   0.17497  -0.10261
C          C       0.47743   0.03970   0.07346  -0.09632
C          C       0.57407   0.05602   0.09103  -0.12190
C          C       0.18933   0.69499   0.73806  -0.13173
C          C       0.12890   0.61890   0.37440  -0.01334
C          C       0.29406   0.63461   0.36082   0.07477
C          C       0.70595   0.36539   0.63918   0.07457
C          C       0.60337   0.11784   0.11939   0.08117
C          C       0.56508   0.85325   0.89045  -0.08917
C          C       0.40701   0.41445   0.58224  -0.00185
C          C       0.30331   0.43163   0.56284   0.52789
C          C       0.53150   0.16276   0.12816  -0.13239
C          C       0.96079   0.40336   0.40537   0.58389
C          C       0.96078   0.09645   0.90450   0.58197
C          C       0.39664   0.88216   0.88061   0.08124
C          C       0.05934   0.58403   0.40937   0.57025
C          C       0.42594   0.94397   0.90897  -0.12221
C          C       0.03923   0.90354   0.09550   0.58210
C          C       0.99005   0.29633   0.34949  -0.08991
C          C       0.16320   0.69878   0.29290   0.07621
C          C       0.06975   0.85015   0.14721  -0.00292
C          C       0.47739   0.45977   0.57341  -0.09662
C          C       0.86968   0.25050   0.25741   0.07479
C          C       0.56483   0.64728   0.39022  -0.09005
C          C       0.84069   0.35419   0.30895  -0.09209
C          C       0.52262   0.54023   0.42659  -0.09723
C          C       0.87111   0.38110   0.62560  -0.01312
C          C       0.26086   0.81771   0.81133  -0.18502
C          C       0.15965   0.85412   0.19153  -0.09037
C          C       0.40696   0.08487   0.08224  -0.00229
C          C       0.81045   0.19518   0.76170  -0.13293
C          C       0.15932   0.64580   0.69105  -0.09186
C          C       0.87101   0.11856   0.12572  -0.01378
C          C       0.05970   0.91680   0.90921   0.57273
C          C       0.43518   0.35271   0.60978  -0.09019
C          C       0.22619   0.60309   0.39234  -0.09518
C          C       0.42592   0.55623   0.40891  -0.12349
C          C       0.73925   0.31781   0.68871  -0.18686
C          C       0.69669   0.56837   0.43716   0.52806
C          C       0.03922   0.59663   0.59463   0.58383
C          C       0.46851   0.83723   0.87184  -0.13236
C          C       0.03955   0.74733   0.19848  -0.12917
C          C       0.13041   0.75034   0.24269   0.07589
C          C       0.96046   0.25266   0.80152  -0.12916
C          C       0.77382   0.39691   0.60766  -0.09522
C          C       0.83681   0.30122   0.70710   0.07663
C          C       0.00996   0.70366   0.65051  -0.08998
C          C       0.12900   0.88144   0.87428  -0.01391
C          C       0.94031   0.08320   0.09079   0.57233
C          C       0.73915   0.18228   0.18868  -0.18500
C          C       0.77362   0.10300   0.10768  -0.09729
C          C       0.29422   0.86539   0.86084   0.07528
C          C       0.16324   0.80113   0.79290   0.07639
C          C       0.90287   0.33378   0.67483  -0.10355
C          C       0.96050   0.24748   0.30170  -0.12970
C          C       0.84036   0.14587   0.80847  -0.09049
C          C       0.93045   0.35014   0.35337  -0.00208
C          C       0.70579   0.13461   0.13916   0.07519
O          O       0.72318   0.51956   0.47550  -0.50067
O          O       0.09588   0.54822   0.59953  -0.54575
O          O       0.72328   0.98194   0.97422  -0.49809
O          O       0.03835   0.39312   0.44816  -0.53694
O          O       0.97220   0.89915   0.89514  -0.51202
O          O       0.24251   0.10378   0.08436  -0.49587
O          O       0.90453   0.03867   0.04990  -0.56482
O          O       0.75728   0.60340   0.41423  -0.49487
O          O       0.02727   0.39641   0.60287  -0.51113
O          O       0.24273   0.39660   0.58577  -0.49485
O          O       0.90413   0.45177   0.40047  -0.54634
O          O       0.27673   0.01806   0.02578  -0.49788
O          O       0.02781   0.10084   0.10486  -0.51167
O          O       0.09432   0.53782   0.44828  -0.56181
O          O       0.09568   0.95214   0.10091  -0.54159
O          O       0.27683   0.48043   0.52450  -0.50078
O          O       0.09548   0.96132   0.95010  -0.56492
O          O       0.75750   0.89621   0.91564  -0.49515
O          O       0.90433   0.04786   0.89909  -0.54161
O          O       0.97274   0.60359   0.39713  -0.51181
O          O       0.03831   0.10673   0.94740  -0.53854
O          O       0.96165   0.60688   0.55184  -0.53744
O          O       0.96170   0.89327   0.05260  -0.53889
O          O       0.90569   0.46218   0.55172  -0.56227

