data_crystal

_audit_creation_method 'AiiDA-DDEC plugin'

_cell_length_a        10.72291
_cell_length_b        17.87266
_cell_length_c        13.59211

_cell_angle_alpha     90.07758
_cell_angle_beta     89.91849
_cell_angle_gamma     97.92046

_symmetry_space_group_name_Hall 'P 1'
_symmetry_space_group_name_H-M  'P 1'

loop_
_symmetry_equiv_pos_as_xyz
 'x,y,z'

loop_
_atom_site_label
_atom_site_type_symbol
_atom_site_fract_x
_atom_site_fract_y
_atom_site_fract_z
_atom_site_charge
Cu         Cu      0.02926   0.36756   0.83494   0.29989
Cu         Cu      0.47150   0.13408   0.83403   0.30193
Cu         Cu      0.97061   0.13222   0.33548   0.30005
Cu         Cu      0.52786   0.36552   0.33290   0.30267
Cu         Cu      0.97092   0.63202   0.16480   0.29914
Cu         Cu      0.52763   0.86587   0.16709   0.30290
Cu         Cu      0.02918   0.86780   0.66463   0.30007
Cu         Cu      0.47166   0.63428   0.66684   0.30155
H          H       0.31031   0.38552   0.90645   0.09281
H          H       0.47162   0.30045   0.87685   0.09323
H          H       0.18797   0.11637   0.85338   0.09206
H          H       0.02692   0.20079   0.88406   0.08866
H          H       0.86540   0.28370   0.97083   0.09683
H          H       0.66365   0.19342   0.96931   0.09327
H          H       0.63784   0.22181   0.66547   0.09653
H          H       0.84023   0.30856   0.66683   0.09616
H          H       0.81635   0.45432   0.90169   0.09337
H          H       0.14786   0.41141   0.03513   0.09444
H          H       0.22839   0.37284   0.68055   0.09180
H          H       0.42876   0.45729   0.65756   0.08909
H          H       0.29566   0.61916   0.83627   0.09044
H          H       0.09440   0.53606   0.85676   0.08510
H          H       0.32390   0.07107   0.01083   0.09089
H          H       0.31012   0.94240   0.08426   0.09052
H          H       0.69017   0.11508   0.40587   0.09300
H          H       0.52896   0.20000   0.37707   0.09333
H          H       0.81253   0.38404   0.35143   0.09198
H          H       0.97375   0.29961   0.38103   0.08928
H          H       0.13720   0.21431   0.47185   0.09640
H          H       0.33545   0.30728   0.46914   0.09322
H          H       0.36130   0.27820   0.16531   0.09624
H          H       0.16313   0.18790   0.16784   0.09592
H          H       0.18443   0.04500   0.40114   0.09378
H          H       0.85357   0.08812   0.53650   0.09491
H          H       0.77312   0.12620   0.17915   0.09181
H          H       0.57198   0.04230   0.15720   0.08930
H          H       0.70329   0.88114   0.33741   0.09117
H          H       0.90542   0.96348   0.35650   0.08574
H          H       0.67573   0.42798   0.51128   0.09050
H          H       0.68963   0.55694   0.58475   0.08999
H          H       0.69006   0.61492   0.09464   0.09318
H          H       0.52854   0.69994   0.12288   0.09276
H          H       0.81181   0.88410   0.14839   0.09213
H          H       0.97339   0.79959   0.11939   0.08899
H          H       0.13728   0.71422   0.02820   0.09654
H          H       0.33560   0.80716   0.03083   0.09322
H          H       0.36100   0.77826   0.33463   0.09629
H          H       0.16259   0.68816   0.33199   0.09622
H          H       0.18430   0.54507   0.09841   0.09341
H          H       0.85343   0.58820   0.96394   0.09492
H          H       0.77329   0.62625   0.32143   0.09135
H          H       0.57230   0.54245   0.34359   0.08905
H          H       0.70372   0.38126   0.16240   0.09130
H          H       0.90578   0.46376   0.14348   0.08533
H          H       0.67586   0.92814   0.98850   0.09060
H          H       0.68944   0.05685   0.91511   0.08968
H          H       0.31021   0.88548   0.59345   0.09306
H          H       0.47118   0.80062   0.62376   0.09337
H          H       0.18717   0.61653   0.64704   0.09175
H          H       0.02654   0.70086   0.61556   0.08917
H          H       0.86575   0.78349   0.52899   0.09691
H          H       0.66372   0.69350   0.53053   0.09335
H          H       0.63776   0.72211   0.83439   0.09605
H          H       0.84024   0.80859   0.83306   0.09637
H          H       0.81690   0.95437   0.59875   0.09327
H          H       0.14843   0.91151   0.46452   0.09413
H          H       0.22814   0.87285   0.81899   0.09195
H          H       0.42844   0.95717   0.84220   0.08914
H          H       0.29608   0.11917   0.66406   0.09066
H          H       0.09484   0.03622   0.64349   0.08534
H          H       0.32394   0.57109   0.49001   0.09057
H          H       0.30987   0.44215   0.41667   0.09057
C          C       0.28228   0.32534   0.89433  -0.00973
C          C       0.37185   0.27831   0.87716  -0.00072
C          C       0.21530   0.17661   0.86484  -0.01809
C          C       0.12633   0.22371   0.88202  -0.00270
C          C       0.81528   0.26794   0.90268  -0.00660
C          C       0.70431   0.21912   0.90184  -0.00736
C          C       0.68892   0.23436   0.73407  -0.00576
C          C       0.80104   0.28274   0.73459  -0.00775
C          C       0.89860   0.47467   0.94597  -0.00825
C          C       0.08175   0.45109   0.02010   0.00142
C          C       0.24275   0.42845   0.71456  -0.01815
C          C       0.35439   0.47581   0.70196  -0.00293
C          C       0.28081   0.56427   0.80051  -0.01027
C          C       0.16886   0.51752   0.81256  -0.01278
C          C       0.40319   0.03923   0.00666  -0.01221
C          C       0.39513   0.96754   0.04600  -0.01321
C          C       0.71831   0.17515   0.39319  -0.01027
C          C       0.62872   0.22215   0.37651  -0.00083
C          C       0.78520   0.32382   0.36296  -0.01754
C          C       0.87431   0.27672   0.37946  -0.00238
C          C       0.18658   0.23038   0.40343  -0.00671
C          C       0.29574   0.28075   0.40188  -0.00759
C          C       0.31102   0.26490   0.23413  -0.00617
C          C       0.20081   0.21483   0.23541  -0.00681
C          C       0.10227   0.02475   0.44569  -0.00911
C          C       0.91936   0.04837   0.52058  -0.00060
C          C       0.75815   0.07098   0.21401  -0.01889
C          C       0.64607   0.02397   0.20191  -0.00400
C          C       0.71851   0.93581   0.30123  -0.00947
C          C       0.83098   0.98220   0.31267  -0.01455
C          C       0.59644   0.45983   0.50729  -0.01125
C          C       0.60465   0.53163   0.54663  -0.01022
C          C       0.71807   0.67504   0.10724  -0.01075
C          C       0.62830   0.72210   0.12344   0.00107
C          C       0.78468   0.82384   0.13694  -0.01908
C          C       0.87393   0.77669   0.12082  -0.00006
C          C       0.18662   0.73051   0.09652  -0.00686
C          C       0.29592   0.78077   0.09814  -0.00682
C          C       0.31079   0.76497   0.26582  -0.00575
C          C       0.20046   0.71504   0.26447  -0.00798
C          C       0.10215   0.52478   0.05395  -0.00970
C          C       0.91920   0.54843   0.97955  -0.00098
C          C       0.75808   0.57107   0.28637  -0.01907
C          C       0.64610   0.52395   0.29856  -0.00355
C          C       0.71873   0.43590   0.19881  -0.00938
C          C       0.83109   0.48240   0.18732  -0.01476
C          C       0.59643   0.95986   0.99275  -0.01137
C          C       0.60452   0.03156   0.95339  -0.01074
C          C       0.28204   0.82532   0.60547  -0.01128
C          C       0.37146   0.77835   0.62316  -0.00006
C          C       0.21480   0.67672   0.63542  -0.01614
C          C       0.12598   0.72376   0.61764  -0.00468
C          C       0.81537   0.76795   0.59714  -0.00700
C          C       0.70430   0.71923   0.59798  -0.00703
C          C       0.68889   0.73462   0.76578  -0.00546
C          C       0.80107   0.78291   0.76522  -0.00830
C          C       0.89904   0.97470   0.55426  -0.00875
C          C       0.08221   0.95116   0.47968   0.00077
C          C       0.24252   0.92842   0.78508  -0.01844
C          C       0.35424   0.97567   0.79783  -0.00322
C          C       0.28125   0.06430   0.69971  -0.01044
C          C       0.16924   0.01766   0.68749  -0.01383
C          C       0.40319   0.53920   0.49389  -0.01195
C          C       0.39503   0.46743   0.45455  -0.01225
N          N       0.15543   0.30002   0.89594  -0.24074
N          N       0.34159   0.20272   0.85990  -0.22278
N          N       0.86893   0.30095   0.81868  -0.22359
N          N       0.63747   0.19947   0.81753  -0.22673
N          N       0.97985   0.42355   0.96417  -0.25378
N          N       0.14447   0.44701   0.77049  -0.25597
N          N       0.37834   0.54677   0.74267  -0.26232
N          N       0.50779   0.07438   0.95848  -0.25609
N          N       0.84526   0.20045   0.39379  -0.24090
N          N       0.65881   0.29770   0.35903  -0.22341
N          N       0.13356   0.19644   0.31978  -0.22232
N          N       0.36151   0.30094   0.31717  -0.22670
N          N       0.02095   0.07586   0.46429  -0.25277
N          N       0.85613   0.05240   0.27004  -0.25593
N          N       0.62137   0.95332   0.24324  -0.26333
N          N       0.49188   0.42469   0.45911  -0.25669
N          N       0.84500   0.70037   0.10679  -0.24024
N          N       0.65830   0.79771   0.14073  -0.22396
N          N       0.13335   0.69669   0.18013  -0.22139
N          N       0.36149   0.80099   0.18287  -0.22741
N          N       0.02099   0.57596   0.03553  -0.25320
N          N       0.85610   0.55258   0.23009  -0.25439
N          N       0.62144   0.45329   0.25702  -0.26315
N          N       0.49194   0.92476   0.04118  -0.25596
N          N       0.15521   0.80001   0.60334  -0.24080
N          N       0.34112   0.70279   0.64056  -0.22390
N          N       0.86899   0.80107   0.68107  -0.22361
N          N       0.63733   0.69973   0.68236  -0.22664
N          N       0.98046   0.92366   0.53589  -0.25172
N          N       0.14446   0.94714   0.72930  -0.25584
N          N       0.37851   0.04666   0.75748  -0.26239
N          N       0.50791   0.57445   0.54175  -0.25660

