data_crystal

_audit_creation_method 'AiiDA-DDEC plugin'

_cell_length_a        12.59493
_cell_length_b        15.32169
_cell_length_c        19.35568

_cell_angle_alpha     89.91178
_cell_angle_beta     89.93188
_cell_angle_gamma     90.16652

_symmetry_space_group_name_Hall 'P 1'
_symmetry_space_group_name_H-M  'P 1'

loop_
_symmetry_equiv_pos_as_xyz
 'x,y,z'

loop_
_atom_site_label
_atom_site_type_symbol
_atom_site_fract_x
_atom_site_fract_y
_atom_site_fract_z
_atom_site_charge
Cd         Cd      0.17868   0.21909   0.32384   0.85098
Cd         Cd      0.32082   0.78175   0.82534   0.85139
Cd         Cd      0.82001   0.71831   0.17562   0.84989
Cd         Cd      0.67810   0.28276   0.67394   0.84982
Cd         Cd      0.82132   0.78091   0.67617   0.85108
Cd         Cd      0.67917   0.21825   0.17466   0.85151
Cd         Cd      0.17999   0.28169   0.82439   0.84977
Cd         Cd      0.32190   0.71724   0.32606   0.84978
H          H       0.38230   0.39006   0.49173   0.13420
H          H       0.51166   0.39888   0.59121   0.09529
H          H       0.64123   0.15894   0.54183   0.09838
H          H       0.51319   0.13893   0.44209   0.13920
H          H       0.21008   0.42692   0.33573   0.11027
H          H       0.11026   0.56419   0.30976   0.14120
H          H       0.90256   0.41061   0.18006   0.12772
H          H       0.00849   0.27908   0.21325   0.11014
H          H       0.11579   0.61145   0.99211   0.13465
H          H       0.98709   0.60133   0.09192   0.09491
H          H       0.85627   0.84127   0.04409   0.09908
H          H       0.98356   0.86281   0.94404   0.13877
H          H       0.28757   0.57362   0.83591   0.10904
H          H       0.38701   0.43627   0.80947   0.14156
H          H       0.59590   0.59010   0.68040   0.12696
H          H       0.49034   0.72187   0.71383   0.10941
H          H       0.61595   0.89244   0.00717   0.13582
H          H       0.48747   0.89917   0.90726   0.09454
H          H       0.36041   0.65784   0.95704   0.09863
H          H       0.48744   0.63983   0.05740   0.13873
H          H       0.78923   0.92589   0.16373   0.11026
H          H       0.88952   0.06325   0.18920   0.14136
H          H       0.09745   0.91025   0.31883   0.12811
H          H       0.99117   0.77844   0.28599   0.10852
H          H       0.88322   0.11009   0.50774   0.13493
H          H       0.01103   0.10199   0.40720   0.09433
H          H       0.14065   0.34276   0.45541   0.09909
H          H       0.01373   0.36218   0.55583   0.13760
H          H       0.71088   0.07515   0.66332   0.10989
H          H       0.61303   0.93693   0.69103   0.14249
H          H       0.40330   0.08960   0.81951   0.12782
H          H       0.50770   0.22213   0.78497   0.10940
H          H       0.61770   0.60994   0.50827   0.13416
H          H       0.48834   0.60112   0.40880   0.09522
H          H       0.35877   0.84106   0.45817   0.09843
H          H       0.48681   0.86107   0.55791   0.13926
H          H       0.78992   0.57308   0.66428   0.11028
H          H       0.88974   0.43581   0.69024   0.14113
H          H       0.09744   0.58939   0.81994   0.12770
H          H       0.99151   0.72092   0.78675   0.11015
H          H       0.88421   0.38855   0.00789   0.13475
H          H       0.01291   0.39867   0.90808   0.09486
H          H       0.14372   0.15873   0.95591   0.09901
H          H       0.01644   0.13719   0.05596   0.13883
H          H       0.71243   0.42638   0.16409   0.10899
H          H       0.61299   0.56373   0.19053   0.14149
H          H       0.40410   0.40990   0.31961   0.12705
H          H       0.50965   0.27813   0.28617   0.10946
H          H       0.38405   0.10756   0.99283   0.13580
H          H       0.51253   0.10083   0.09274   0.09461
H          H       0.63958   0.34216   0.04296   0.09859
H          H       0.51256   0.36017   0.94261   0.13868
H          H       0.21077   0.07411   0.83627   0.11028
H          H       0.11048   0.93675   0.81080   0.14144
H          H       0.90255   0.08975   0.68118   0.12813
H          H       0.00883   0.22156   0.71401   0.10858
H          H       0.11677   0.88991   0.49226   0.13486
H          H       0.98897   0.89801   0.59280   0.09439
H          H       0.85935   0.65724   0.54460   0.09918
H          H       0.98627   0.63782   0.44417   0.13745
H          H       0.28912   0.92485   0.33668   0.11000
H          H       0.38697   0.06307   0.30897   0.14266
H          H       0.59670   0.91040   0.18049   0.12771
H          H       0.49230   0.77788   0.21503   0.10934
C          C       0.35587   0.25367   0.40449   0.54147
C          C       0.43830   0.26337   0.46021   0.02233
C          C       0.43863   0.33795   0.50190  -0.14464
C          C       0.50972   0.34283   0.55669   0.08391
C          C       0.58169   0.20781   0.52910   0.07864
C          C       0.51202   0.19743   0.47388  -0.13883
C          C       0.14120   0.42608   0.30200   0.07912
C          C       0.08574   0.50232   0.28712  -0.13474
C          C      -0.00264   0.49776   0.24349   0.01928
C          C       0.96960   0.41693   0.21512  -0.14677
C          C       0.02874   0.34361   0.23249   0.06815
C          C       0.93483   0.57856   0.22645   0.53464
C          C       0.14313   0.75023   0.90630   0.53962
C          C       0.05996   0.73880   0.96157   0.02457
C          C       0.05960   0.66352   0.00270  -0.14809
C          C       0.98866   0.65779   0.05768   0.08373
C          C       0.91606   0.79282   0.03094   0.07833
C          C       0.98552   0.80405   0.97560  -0.13887
C          C       0.35658   0.57459   0.80217   0.07827
C          C       0.41181   0.49830   0.78709  -0.13436
C          C       0.50045   0.50289   0.74353   0.01996
C          C       0.52859   0.58386   0.71536  -0.14861
C          C       0.46964   0.65724   0.73287   0.07115
C          C       0.56257   0.42186   0.72636   0.53631
C          C       0.64380   0.75541   0.09464   0.54012
C          C       0.56148   0.76484   0.03887   0.02268
C          C       0.56043   0.83948   0.99709  -0.14691
C          C       0.48978   0.84329   0.94201   0.08592
C          C       0.41915   0.70752   0.96979   0.07728
C          C       0.48829   0.69818   0.02534  -0.13846
C          C       0.85814   0.92516   0.19743   0.07761
C          C       0.91396   0.00148   0.21200  -0.13477
C          C       0.00260   0.99718   0.25544   0.01962
C          C       0.03024   0.91642   0.28392  -0.15007
C          C       0.97076   0.84293   0.26677   0.07209
C          C       0.06479   0.07860   0.27203   0.53656
C          C       0.85615   0.24782   0.59387   0.54105
C          C       0.93852   0.23764   0.53816   0.02417
C          C       0.93885   0.16276   0.49683  -0.14832
C          C       0.00934   0.15815   0.44159   0.08579
C          C       0.08130   0.29361   0.46844   0.07639
C          C       0.01215   0.30377   0.52398  -0.13728
C          C       0.64215   0.07559   0.69729   0.07490
C          C       0.58771  -0.00114   0.71303  -0.13386
C          C       0.49910   0.00291   0.75664   0.01941
C          C       0.47048   0.08375   0.78443  -0.14886
C          C       0.52879   0.15759   0.76628   0.07132
C          C       0.43730   0.92135   0.77367   0.53769
C          C       0.64413   0.74633   0.59551   0.54138
C          C       0.56170   0.73663   0.53979   0.02243
C          C       0.56137   0.66205   0.49811  -0.14455
C          C       0.49028   0.65717   0.44332   0.08378
C          C       0.41831   0.79220   0.47090   0.07865
C          C       0.48798   0.80257   0.52612  -0.13879
C          C       0.85880   0.57392   0.69801   0.07910
C          C       0.91426   0.49768   0.71289  -0.13472
C          C       0.00264   0.50224   0.75651   0.01930
C          C       0.03040   0.58307   0.78489  -0.14672
C          C       0.97126   0.65639   0.76751   0.06825
C          C       0.06517   0.42144   0.77355   0.53452
C          C       0.85687   0.24977   0.09371   0.53934
C          C       0.94003   0.26120   0.03844   0.02470
C          C       0.94040   0.33648   0.99730  -0.14822
C          C       0.01134   0.34221   0.94232   0.08389
C          C       0.08394   0.20718   0.96906   0.07846
C          C       0.01448   0.19595   0.02440  -0.13893
C          C       0.64341   0.42541   0.19783   0.07807
C          C       0.58819   0.50170   0.21291  -0.13429
C          C       0.49954   0.49711   0.25647   0.01989
C          C       0.47141   0.41614   0.28465  -0.14842
C          C       0.53036   0.34276   0.26713   0.07122
C          C       0.43743   0.57814   0.27364   0.53633
C          C       0.35619   0.24459   0.90536   0.54017
C          C       0.43852   0.23516   0.96113   0.02256
C          C       0.43956   0.16052   0.00291  -0.14683
C          C       0.51022   0.15671   0.05799   0.08591
C          C       0.58085   0.29248   0.03021   0.07731
C          C       0.51170   0.30182   0.97467  -0.13850
C          C       0.14186   0.07484   0.80258   0.07764
C          C       0.08603  -0.00148   0.78801  -0.13486
C          C      -0.00260   0.00282   0.74456   0.01959
C          C       0.96976   0.08358   0.71609  -0.15003
C          C       0.02923   0.15707   0.73323   0.07181
C          C       0.93521   0.92140   0.72797   0.53671
C          C       0.14385   0.75218   0.40613   0.54119
C          C       0.06148   0.76236   0.46184   0.02403
C          C       0.06115   0.83724   0.50317  -0.14829
C          C       0.99066   0.84185   0.55842   0.08585
C          C       0.91870   0.70639   0.53156   0.07645
C          C       0.98784   0.69623   0.47602  -0.13731
C          C       0.35784   0.92441   0.30272   0.07505
C          C       0.41229   0.00114   0.28697  -0.13400
C          C       0.50089   0.99709   0.24336   0.01944
C          C       0.52952   0.91625   0.21557  -0.14899
C          C       0.47121   0.84241   0.23373   0.07132
C          C       0.56270   0.07865   0.22633   0.53770
N          N       0.57962   0.27864   0.57054  -0.23614
N          N       0.11278   0.34749   0.27593  -0.24465
N          N       0.91867   0.72167   0.07216  -0.23570
N          N       0.38544   0.65332   0.77632  -0.24572
N          N       0.42096   0.77812   0.92800  -0.23493
N          N       0.88644   0.84662   0.22356  -0.24408
N          N       0.07901   0.22267   0.42712  -0.23629
N          N       0.61278   0.15420   0.72265  -0.24360
N          N       0.42037   0.72136   0.42946  -0.23622
N          N       0.88722   0.65251   0.72408  -0.24466
N          N       0.08133   0.27834   0.92784  -0.23595
N          N       0.61456   0.34668   0.22368  -0.24591
N          N       0.57904   0.22188   0.07200  -0.23488
N          N       0.11356   0.15338   0.77644  -0.24392
N          N       0.92099   0.77733   0.57289  -0.23619
N          N       0.38722   0.84580   0.27736  -0.24363
O          O       0.34204   0.17853   0.37798  -0.52837
O          O       0.30121   0.32058   0.38897  -0.56397
O          O       0.97318   0.65220   0.24286  -0.55462
O          O       0.84656   0.56905   0.19429  -0.53999
O          O       0.15927   0.82625   0.88199  -0.52518
O          O       0.19634   0.68316   0.88886  -0.56658
O          O       0.52383   0.34841   0.74283  -0.55493
O          O       0.65095   0.43106   0.69403  -0.54094
O          O       0.65688   0.68027   0.12157  -0.52832
O          O       0.69886   0.82226   0.11008  -0.56262
O          O       0.02677   0.15136   0.25366  -0.55622
O          O       0.15205   0.07071   0.30570  -0.53965
O          O       0.84077   0.32372   0.61860  -0.52888
O          O       0.80292   0.18054   0.61104  -0.56455
O          O       0.47638   0.84843   0.75705  -0.55607
O          O       0.34876   0.92945   0.80590  -0.54101
O          O       0.65796   0.82147   0.62202  -0.52831
O          O       0.69879   0.67942   0.61104  -0.56398
O          O       0.02682   0.34780   0.75715  -0.55464
O          O       0.15344   0.43095   0.80571  -0.53990
O          O       0.84073   0.17375   0.11801  -0.52511
O          O       0.80365   0.31685   0.11114  -0.56638
O          O       0.47616   0.65159   0.25717  -0.55504
O          O       0.34905   0.56894   0.30597  -0.54077
O          O       0.34312   0.31973   0.87843  -0.52835
O          O       0.30114   0.17774   0.88992  -0.56262
O          O       0.97322   0.84864   0.74634  -0.55630
O          O       0.84795   0.92929   0.69430  -0.53972
O          O       0.15922   0.67628   0.38141  -0.52892
O          O       0.19708   0.81946   0.38896  -0.56467
O          O       0.52362   0.15157   0.24295  -0.55591
O          O       0.65124   0.07055   0.19410  -0.54119

