data_crystal

_audit_creation_method 'AiiDA-DDEC plugin'

_cell_length_a        15.74578
_cell_length_b        17.81975
_cell_length_c        17.82017

_cell_angle_alpha     112.44461
_cell_angle_beta     107.15446
_cell_angle_gamma     107.15629

_symmetry_space_group_name_Hall 'P 1'
_symmetry_space_group_name_H-M  'P 1'

loop_
_symmetry_equiv_pos_as_xyz
 'x,y,z'

loop_
_atom_site_label
_atom_site_type_symbol
_atom_site_fract_x
_atom_site_fract_y
_atom_site_fract_z
_atom_site_charge
Na         Na      0.91656   0.66284   0.32951   0.88591
Na         Na      0.77090   0.52277   0.04550   0.91887
Na         Na      0.58344   0.67050   0.33717   0.88589
Na         Na      0.72910   0.95451   0.47723   0.91888
Na         Na      0.25000   0.66289   0.33712   0.88565
Na         Na      0.25000   0.52274   0.47726   0.91809
Na         Na      0.08344   0.33717   0.67049   0.88588
Na         Na      0.22910   0.47723   0.95451   0.91888
Na         Na      0.41656   0.32951   0.66283   0.88591
Na         Na      0.27090   0.04550   0.52277   0.91890
Na         Na      0.75000   0.33712   0.66288   0.88562
Na         Na      0.75000   0.47726   0.52274   0.91807
Zn         Zn      0.14945   0.79751   0.40144   0.91693
Zn         Zn      0.74999   0.60087   0.39906   0.91918
Zn         Zn      0.35055   0.59855   0.20249   0.91706
Zn         Zn      0.85055   0.20250   0.59856   0.91703
Zn         Zn      0.25001   0.39914   0.60094   0.91913
Zn         Zn      0.64946   0.40145   0.79751   0.91696
H          H       0.08745   0.60725   0.94243   0.15430
H          H       0.19402   0.70122   0.13240   0.15331
H          H       0.14630   0.06267   0.66685   0.15316
H          H       0.06333   0.87309   0.57440   0.15462
H          H       0.47872   0.33397   0.39328   0.15287
H          H       0.49085   0.42733   0.29982   0.15374
H          H       0.35370   0.33316   0.93733   0.15298
H          H       0.43666   0.42560   0.12691   0.15467
H          H       0.02128   0.60673   0.66603   0.15285
H          H       0.00915   0.70019   0.57267   0.15376
H          H       0.41255   0.05758   0.39276   0.15430
H          H       0.30598   0.86760   0.29878   0.15327
H          H       0.91255   0.39276   0.05757   0.15431
H          H       0.80598   0.29879   0.86760   0.15322
H          H       0.85370   0.93733   0.33316   0.15306
H          H       0.93667   0.12692   0.42561   0.15475
H          H       0.52128   0.66604   0.60673   0.15299
H          H       0.50915   0.57267   0.70018   0.15375
H          H       0.64630   0.66685   0.06267   0.15307
H          H       0.56334   0.57440   0.87310   0.15472
H          H       0.97872   0.39327   0.33397   0.15285
H          H       0.99085   0.29982   0.42733   0.15372
H          H       0.58745   0.94243   0.60724   0.15417
H          H       0.69402   0.13241   0.70122   0.15337
C          C       0.04894   0.67111   0.21157   0.56740
C          C       0.86542   0.50626   0.88364   0.54822
C          C       0.95965   0.56884   0.96967   0.08524
C          C       0.05929   0.61168   0.99187  -0.17693
C          C       0.11378   0.66043   0.08920  -0.17054
C          C       0.04445   0.64439   0.12099   0.08346
C          C       0.83761   0.79038   0.46238   0.56665
C          C       0.98224   0.11859   0.61947   0.54611
C          C       0.99053   0.03343   0.59882   0.08340
C          C       0.06835   0.01253   0.62158  -0.17593
C          C       0.02575   0.91526   0.57468  -0.16966
C          C       0.92410   0.88195   0.52550   0.08550
C          C       0.37520   0.53715   0.32948   0.56826
C          C       0.35947   0.37862   0.49494   0.54748
C          C       0.38931   0.39999   0.43158   0.08419
C          C       0.44573   0.37850   0.38878  -0.17570
C          C       0.45129   0.42588   0.34020  -0.16807
C          C       0.39795   0.47391   0.35601   0.08270
C          C       0.66238   0.53762   0.20960   0.56628
C          C       0.51776   0.38053   0.88141   0.54605
C          C       0.50947   0.40119   0.96657   0.08341
C          C       0.43165   0.37842   0.98747  -0.17610
C          C       0.47425   0.42532   0.08473  -0.16953
C          C       0.57590   0.47450   0.11804   0.08579
C          C       0.12480   0.67052   0.46285   0.56800
C          C       0.14053   0.50508   0.62139   0.54750
C          C       0.11068   0.56843   0.60001   0.08432
C          C       0.05427   0.61123   0.62150  -0.17565
C          C       0.04871   0.65981   0.57412  -0.16804
C          C       0.10205   0.64400   0.52609   0.08305
C          C       0.45106   0.78843   0.32889   0.56757
C          C       0.63459   0.11637   0.49375   0.54773
C          C       0.54035   0.03034   0.43117   0.08568
C          C       0.44072   0.00813   0.38833  -0.17704
C          C       0.38622   0.91081   0.33957  -0.17051
C          C       0.45555   0.87901   0.35561   0.08332
C          C       0.95107   0.32890   0.78843   0.56753
C          C       0.13458   0.49374   0.11636   0.54800
C          C       0.04035   0.43116   0.03034   0.08535
C          C       0.94071   0.38833   0.00813  -0.17709
C          C       0.88622   0.33958   0.91080  -0.17056
C          C       0.95555   0.35562   0.87901   0.08332
C          C       0.16239   0.20962   0.53763   0.56638
C          C       0.01776   0.88141   0.38053   0.54619
C          C       0.00947   0.96658   0.40119   0.08339
C          C       0.93165   0.98747   0.37842  -0.17603
C          C       0.97425   0.08474   0.42532  -0.16955
C          C       0.07590   0.11806   0.47450   0.08562
C          C       0.62480   0.46285   0.67052   0.56842
C          C       0.64053   0.62138   0.50507   0.54731
C          C       0.61069   0.60001   0.56842   0.08438
C          C       0.55428   0.62150   0.61122  -0.17563
C          C       0.54871   0.57413   0.65980  -0.16800
C          C       0.60206   0.52609   0.64399   0.08263
C          C       0.33762   0.46239   0.79040   0.56637
C          C       0.48224   0.61947   0.11859   0.54604
C          C       0.49053   0.59882   0.03343   0.08370
C          C       0.56835   0.62159   0.01254  -0.17605
C          C       0.52576   0.57469   0.91527  -0.16961
C          C       0.42411   0.52551   0.88196   0.08582
C          C       0.87520   0.32948   0.53715   0.56826
C          C       0.85947   0.49493   0.37862   0.54725
C          C       0.88932   0.43158   0.39999   0.08436
C          C       0.94573   0.38877   0.37850  -0.17551
C          C       0.95129   0.34019   0.42588  -0.16828
C          C       0.89795   0.35601   0.47391   0.08273
C          C       0.54894   0.21157   0.67111   0.56735
C          C       0.36542   0.88364   0.50625   0.54789
C          C       0.45965   0.96966   0.56884   0.08547
C          C       0.55929   0.99187   0.61167  -0.17718
C          C       0.61378   0.08920   0.66043  -0.17052
C          C       0.54445   0.12099   0.64439   0.08354
O          O       0.13866   0.72722   0.28009  -0.61386
O          O       0.96937   0.64046   0.21623  -0.61784
O          O       0.78658   0.48821   0.89735  -0.63692
O          O       0.86659   0.47532   0.80866  -0.56446
O          O       0.94990   0.58905   0.04843  -0.16989
O          O       0.85956   0.72299   0.45085  -0.61100
O          O       0.75258   0.78436   0.42697  -0.61564
O          O       0.88926   0.10396   0.58517  -0.64111
O          O       0.05873   0.19372   0.66369  -0.56122
O          O       0.90168   0.95362   0.54040  -0.17576
O          O       0.40831   0.54874   0.27361  -0.61659
O          O       0.32668   0.57291   0.36065  -0.61565
O          O       0.30048   0.41216   0.51489  -0.63758
O          O       0.39154   0.33459   0.52484  -0.56552
O          O       0.35915   0.45804   0.41134  -0.17408
O          O       0.64042   0.54913   0.27698  -0.61065
O          O       0.74742   0.57303   0.21564  -0.61559
O          O       0.61075   0.41484   0.89605  -0.64084
O          O       0.44128   0.33631   0.80628  -0.56149
O          O       0.59832   0.45960   0.04637  -0.17581
O          O       0.09169   0.72640   0.45126  -0.61630
O          O       0.17332   0.63935   0.42709  -0.61576
O          O       0.19952   0.48513   0.58785  -0.63759
O          O       0.10847   0.47517   0.66542  -0.56546
O          O       0.14084   0.58867   0.54196  -0.17433
O          O       0.36134   0.71991   0.27278  -0.61399
O          O       0.53063   0.78377   0.35954  -0.61793
O          O       0.71342   0.10266   0.51180  -0.63689
O          O       0.63342   0.19135   0.52469  -0.56414
O          O       0.55010   0.95158   0.41096  -0.16997
O          O       0.86134   0.27279   0.71991  -0.61408
O          O       0.03063   0.35955   0.78377  -0.61773
O          O       0.21342   0.51180   0.10266  -0.63694
O          O       0.13341   0.52468   0.19134  -0.56433
O          O       0.05010   0.41096   0.95157  -0.16974
O          O       0.14044   0.27701   0.54915  -0.61067
O          O       0.24742   0.21565   0.57304  -0.61559
O          O       0.11075   0.89605   0.41483  -0.64097
O          O       0.94127   0.80628   0.33631  -0.56158
O          O       0.09832   0.04638   0.45960  -0.17589
O          O       0.59169   0.45127   0.72639  -0.61658
O          O       0.67333   0.42709   0.63936  -0.61580
O          O       0.69952   0.58784   0.48511  -0.63772
O          O       0.60847   0.66542   0.47516  -0.56515
O          O       0.64085   0.54196   0.58867  -0.17434
O          O       0.35958   0.45088   0.72302  -0.61066
O          O       0.25259   0.42698   0.78436  -0.61571
O          O       0.38925   0.58517   0.10396  -0.64096
O          O       0.55873   0.66369   0.19372  -0.56135
O          O       0.40169   0.54041   0.95363  -0.17601
O          O       0.90832   0.27361   0.54874  -0.61660
O          O       0.82668   0.36065   0.57291  -0.61562
O          O       0.80048   0.51488   0.41215  -0.63754
O          O       0.89153   0.52483   0.33458  -0.56524
O          O       0.85916   0.41133   0.45804  -0.17418
O          O       0.63866   0.28010   0.72722  -0.61375
O          O       0.46937   0.21624   0.64046  -0.61789
O          O       0.28658   0.89734   0.48820  -0.63675
O          O       0.36659   0.80865   0.47531  -0.56449
O          O       0.44990   0.04843   0.58904  -0.16988

