data_crystal

_audit_creation_method 'AiiDA-DDEC plugin'

_cell_length_a        10.04741
_cell_length_b        18.56195
_cell_length_c        20.94775

_cell_angle_alpha     89.32599
_cell_angle_beta     84.67667
_cell_angle_gamma     87.19592

_symmetry_space_group_name_Hall 'P 1'
_symmetry_space_group_name_H-M  'P 1'

loop_
_symmetry_equiv_pos_as_xyz
 'x,y,z'

loop_
_atom_site_label
_atom_site_type_symbol
_atom_site_fract_x
_atom_site_fract_y
_atom_site_fract_z
_atom_site_charge
Ba         Ba      0.95967   0.18284   0.59220   1.49208
Ba         Ba      0.04033   0.81717   0.40780   1.49205
Cd         Cd      0.61382   0.45155   0.03891   1.05337
Cd         Cd      0.88515   0.99652   0.47460   0.45591
Cd         Cd      0.38617   0.54845   0.96109   1.05340
Cd         Cd      0.11485   0.00348   0.52540   0.45592
Cd         Cd      0.37739   0.96170   0.00938   0.77644
Cd         Cd      0.62261   0.03830   0.99062   0.77640
H          H       0.12992   0.25280   0.40395   0.10310
H          H       0.19754   0.32140   0.30431   0.11326
H          H       0.93923   0.19688   0.20113   0.12175
H          H       0.87476   0.12772   0.30018   0.10554
H          H       0.30198   0.32836   0.19460   0.11786
H          H       0.12520   0.45096   0.04704   0.12450
H          H       0.88004   0.31458   0.17077   0.12344
H          H       0.41241   0.40542   0.79264   0.12324
H          H       0.42003   0.31389   0.70524   0.09566
H          H       0.65812   0.16916   0.81655   0.11110
H          H       0.65575   0.26213   0.89996   0.11034
H          H       0.33503   0.20340   0.68401   0.11104
H          H       0.53838   0.03062   0.57417   0.11600
H          H       0.74279   0.13908   0.71344   0.10646
H          H       0.87007   0.74720   0.59605   0.10324
H          H       0.80246   0.67860   0.69569   0.11325
H          H       0.06077   0.80313   0.79887   0.12167
H          H       0.12524   0.87228   0.69981   0.10557
H          H       0.69802   0.67164   0.80540   0.11792
H          H       0.87480   0.54904   0.95296   0.12444
H          H       0.11996   0.68542   0.82923   0.12342
H          H       0.58758   0.59458   0.20736   0.12310
H          H       0.57997   0.68611   0.29476   0.09553
H          H       0.34188   0.83084   0.18345   0.11112
H          H       0.34424   0.73787   0.10003   0.11037
H          H       0.66496   0.79660   0.31598   0.11102
H          H       0.46161   0.96938   0.42582   0.11593
H          H       0.25720   0.86092   0.28656   0.10656
H          H      -0.00325   0.55411   0.06946   0.15664
H          H       0.14288   0.60830   0.06563   0.15353
H          H       0.03588   0.60216   0.13845   0.13718
H          H       0.79105   0.60422   0.05763   0.14230
H          H       0.64519   0.71020   0.02919   0.15184
H          H       0.97852   0.84549   0.04909   0.14439
H          H       0.11536   0.73394   0.07096   0.12728
H          H       0.73421   0.82595   0.16053   0.11582
H          H       0.61467   0.93189   0.23447   0.11292
H          H       0.76682   0.76416   0.91562   0.11816
H          H       0.64141   0.81167   0.81638   0.12234
H          H       0.29105   0.10256   0.24592   0.13303
H          H       0.29920   0.13182   0.35924   0.11345
H          H       0.43631   0.08510   0.45622   0.13411
H          H       0.46299   0.17771   0.43745   0.12780
H          H       0.60370   0.11573   0.44247   0.14249
H          H       0.70752   0.07612   0.35223   0.11516
H          H       0.71539   0.04349   0.23725   0.13283
H          H       0.00325   0.44589   0.93054   0.15664
H          H       0.85712   0.39170   0.93437   0.15354
H          H       0.96412   0.39784   0.86155   0.13725
H          H       0.20895   0.39578   0.94237   0.14230
H          H       0.35480   0.28980   0.97081   0.15182
H          H       0.02148   0.15451   0.95091   0.14435
H          H       0.88464   0.26606   0.92903   0.12731
H          H       0.26579   0.17405   0.83947   0.11588
H          H       0.38533   0.06811   0.76553   0.11293
H          H       0.23317   0.23584   0.08438   0.11824
H          H       0.35859   0.18833   0.18361   0.12234
H          H       0.70895   0.89744   0.75408   0.13292
H          H       0.70080   0.86818   0.64075   0.11347
H          H       0.56369   0.91490   0.54378   0.13414
H          H       0.53701   0.82229   0.56255   0.12775
H          H       0.39630   0.88427   0.55753   0.14254
H          H       0.29248   0.92388   0.64777   0.11524
H          H       0.28461   0.95652   0.76275   0.13284
C          C       0.93905   0.15488   0.42090   0.59969
C          C       0.99415   0.18762   0.35938  -0.05612
C          C       0.08952   0.24054   0.35915  -0.09954
C          C       0.12745   0.27866   0.30333  -0.15241
C          C       0.06846   0.26619   0.24631   0.08889
C          C       0.98086   0.20929   0.24563  -0.13740
C          C       0.94467   0.17040   0.30116  -0.08505
C          C       0.08847   0.31497   0.19034   0.04570
C          C       0.21274   0.34351   0.17085  -0.14102
C          C       0.22650   0.39050   0.11814  -0.01619
C          C       0.11398   0.41314   0.08705  -0.13510
C          C       0.98892   0.38625   0.10670  -0.02403
C          C       0.97774   0.33564   0.15676  -0.14547
C          C       0.86587   0.41188   0.07608   0.54538
C          C       0.36240   0.41459   0.09391   0.56048
C          C       0.52870   0.39620   0.90308   0.57945
C          C       0.53537   0.34005   0.85098  -0.02641
C          C       0.46698   0.35371   0.79632  -0.10519
C          C       0.47038   0.30225   0.74829  -0.15605
C          C       0.54052   0.23532   0.75410   0.04339
C          C       0.60803   0.22158   0.80921  -0.13703
C          C       0.60591   0.27366   0.85680  -0.10102
C          C       0.54067   0.18031   0.70375   0.07536
C          C       0.42624   0.17072   0.67150  -0.13352
C          C       0.42458   0.11631   0.62587  -0.04409
C          C       0.53934   0.07214   0.61012  -0.11713
C          C       0.65535   0.08169   0.64035  -0.05095
C          C       0.65436   0.13471   0.68759  -0.18060
C          C       0.78078   0.03678   0.61994   0.56312
C          C       0.29886   0.10231   0.59585   0.60200
C          C       0.06095   0.84512   0.57909   0.59947
C          C       0.00584   0.81238   0.64062  -0.05601
C          C       0.91048   0.75947   0.64085  -0.09964
C          C       0.87254   0.72134   0.69667  -0.15242
C          C       0.93154   0.73381   0.75369   0.08902
C          C       0.01914   0.79071   0.75437  -0.13745
C          C       0.05533   0.82960   0.69883  -0.08513
C          C       0.91153   0.68503   0.80966   0.04568
C          C       0.78726   0.65649   0.82914  -0.14086
C          C       0.77350   0.60951   0.88186  -0.01635
C          C       0.88602   0.58686   0.91295  -0.13509
C          C       0.01108   0.61375   0.89330  -0.02401
C          C       0.02226   0.66436   0.84324  -0.14546
C          C       0.13413   0.58812   0.92391   0.54540
C          C       0.63759   0.58541   0.90609   0.56048
C          C       0.47130   0.60380   0.09692   0.57952
C          C       0.46463   0.65995   0.14902  -0.02640
C          C       0.53302   0.64629   0.20368  -0.10517
C          C       0.52962   0.69775   0.25171  -0.15599
C          C       0.45947   0.76468   0.24589   0.04328
C          C       0.39196   0.77842   0.19079  -0.13693
C          C       0.39409   0.72634   0.14320  -0.10094
C          C       0.45933   0.81969   0.29625   0.07545
C          C       0.57376   0.82928   0.32849  -0.13365
C          C       0.57542   0.88369   0.37412  -0.04410
C          C       0.46066   0.92786   0.38988  -0.11707
C          C       0.34464   0.91831   0.35964  -0.05092
C          C       0.34564   0.86529   0.31241  -0.18061
C          C       0.21921   0.96322   0.38006   0.56311
C          C       0.70114   0.89769   0.40415   0.60198
C          C       0.03929   0.60313   0.08598  -0.33041
C          C       0.82778   0.65851   0.05410   0.03456
C          C       0.74789   0.71822   0.03897  -0.15957
C          C       0.79826   0.78754   0.03788   0.15552
C          C       0.93255   0.79351   0.05022  -0.16826
C          C       0.01011   0.73244   0.06310   0.01421
C          C       0.68039   0.89812   0.07987   0.13610
C          C       0.69272   0.87734   0.14470  -0.18458
C          C       0.63090   0.93194   0.18273  -0.22011
C          C       0.58334   0.98689   0.14114   0.19123
C          C       0.71275   0.85327   0.02613  -0.07887
C          C       0.67018   0.86259   0.96489   0.14690
C          C       0.70419   0.81309   0.91349  -0.16432
C          C       0.64174   0.83853   0.86184  -0.19492
C          C       0.57201   0.90601   0.87963   0.21270
C          C       0.50554   0.05127   0.16164  -0.15279
C          C       0.50421   0.07098   0.22824   0.12562
C          C       0.38695   0.09797   0.26606  -0.18583
C          C       0.38887   0.11450   0.32951   0.00732
C          C       0.50155   0.12213   0.42836  -0.30007
C          C       0.61940   0.08027   0.32574  -0.01381
C          C       0.62093   0.06262   0.26233  -0.18687
C          C       0.96071   0.39687   0.91402  -0.33031
C          C       0.17222   0.34149   0.94590   0.03458
C          C       0.25211   0.28178   0.96102  -0.15968
C          C       0.20174   0.21246   0.96212   0.15552
C          C       0.06745   0.20649   0.94978  -0.16827
C          C       0.98989   0.26756   0.93690   0.01430
C          C       0.31961   0.10188   0.92013   0.13621
C          C       0.30728   0.12267   0.85530  -0.18460
C          C       0.36910   0.06806   0.81726  -0.21985
C          C       0.41666   0.01311   0.85886   0.19120
C          C       0.28725   0.14674   0.97387  -0.07897
C          C       0.32982   0.13741   0.03511   0.14700
C          C       0.29580   0.18691   0.08651  -0.16431
C          C       0.35825   0.16147   0.13816  -0.19503
C          C       0.42799   0.09400   0.12036   0.21278
C          C       0.49445   0.94873   0.83836  -0.15286
C          C       0.49579   0.92902   0.77176   0.12571
C          C       0.61305   0.90203   0.73394  -0.18578
C          C       0.61113   0.88550   0.67049   0.00719
C          C       0.49845   0.87787   0.57164  -0.30005
C          C       0.38060   0.91973   0.67426  -0.01379
C          C       0.37907   0.93738   0.73767  -0.18693
N          N       0.58764   0.92016   0.94378  -0.43457
N          N       0.61324   0.96568   0.07826  -0.40715
N          N       0.95671   0.66631   0.06639   0.19393
N          N       0.50412   0.10648   0.35980   0.11541
N          N       0.41236   0.07984   0.05621  -0.43465
N          N       0.38676   0.03432   0.92174  -0.40732
N          N       0.04329   0.33369   0.93361   0.19390
N          N       0.49588   0.89353   0.64019   0.11550
Cl         Cl      0.23191   0.88263   0.06947  -0.49439
Cl         Cl      0.76809   0.11737   0.93053  -0.49436
O          O       0.85263   0.10697   0.41961  -0.53958
O          O       0.97932   0.17858   0.47309  -0.72239
O          O       0.77206   0.36806   0.07510  -0.55273
O          O       0.85916   0.47602   0.05359  -0.57325
O          O       0.37327   0.44369   0.03764  -0.62401
O          O       0.45984   0.40321   0.12722  -0.54666
O          O       0.61790   0.38937   0.94274  -0.58358
O          O       0.43346   0.44358   0.90173  -0.56287
O          O       0.89223   0.06138   0.63489  -0.67616
O          O       0.77088   0.98129   0.58712  -0.52913
O          O       0.29856   0.04357   0.56488  -0.47455
O          O       0.20072   0.14887   0.60365  -0.67379
O          O       0.14737   0.89303   0.58039  -0.53958
O          O       0.02068   0.82142   0.52691  -0.72221
O          O       0.22794   0.63194   0.92490  -0.55274
O          O       0.14084   0.52398   0.94641  -0.57338
O          O       0.62673   0.55631   0.96236  -0.62411
O          O       0.54015   0.59679   0.87278  -0.54650
O          O       0.38210   0.61063   0.05726  -0.58348
O          O       0.56654   0.55642   0.09827  -0.56300
O          O       0.10777   0.93862   0.36511  -0.67603
O          O       0.22911   0.01871   0.41288  -0.52913
O          O       0.70144   0.95643   0.43512  -0.47454
O          O       0.79928   0.85113   0.39635  -0.67383

