data_crystal

_audit_creation_method 'AiiDA-DDEC plugin'

_cell_length_a        13.71332
_cell_length_b        13.51136
_cell_length_c        17.17722

_cell_angle_alpha     67.11053
_cell_angle_beta     87.64511
_cell_angle_gamma     89.79175

_symmetry_space_group_name_Hall 'P 1'
_symmetry_space_group_name_H-M  'P 1'

loop_
_symmetry_equiv_pos_as_xyz
 'x,y,z'

loop_
_atom_site_label
_atom_site_type_symbol
_atom_site_fract_x
_atom_site_fract_y
_atom_site_fract_z
_atom_site_charge
Zn         Zn      0.28732   0.84006   0.37279   0.91508
Zn         Zn      0.90218   0.43564   0.30034   0.91057
Zn         Zn      0.78863   0.58196   0.17157   0.92119
Zn         Zn      0.41122   0.98136   0.23939   0.92030
Zn         Zn      0.71268   0.15995   0.62721   0.91488
Zn         Zn      0.09781   0.56437   0.69966   0.91051
Zn         Zn      0.21136   0.41804   0.82843   0.92120
Zn         Zn      0.58878   0.01864   0.76061   0.92033
H          H       0.07962   0.73016   0.24768   0.12891
H          H       0.98764   0.82432   0.99175   0.14587
H          H       0.23586   0.98093   0.04415   0.13778
H          H       0.17589   0.10871   0.92061   0.08026
H          H       0.26294   0.02578   0.89399   0.08316
H          H       0.08622   0.12735   0.78537   0.10008
H          H       0.17526   0.23261   0.27195   0.13275
H          H       0.10983   0.28579   0.49939   0.13123
H          H       0.31682   0.04335   0.50271   0.15323
H          H       0.22408   0.27415   0.61213   0.06492
H          H       0.11644   0.19172   0.63848   0.08330
H          H       0.30416   0.11537   0.73835   0.11814
H          H       0.57351   0.68291   0.30105   0.13434
H          H       0.74009   0.46889   0.50374   0.13294
H          H       0.49540   0.63660   0.55900   0.14904
H          H       0.71236   0.37038   0.63905   0.05539
H          H       0.78084   0.48713   0.62951   0.08012
H          H       0.65689   0.34278   0.78908   0.11918
H          H       0.83243   0.49805   0.75339   0.10764
H          H       0.76271   0.47519   0.90026   0.09214
H          H       0.86161   0.38968   0.90088   0.07725
H          H       0.81566   0.40389   0.02604   0.12995
H          H       0.68379   0.18448   0.26174   0.13946
H          H       0.61187   0.16067   0.02757   0.14678
H          H       0.92037   0.26984   0.75232   0.12896
H          H       0.01235   0.17568   0.00825   0.14583
H          H       0.76413   0.01908   0.95585   0.13788
H          H       0.82411   0.89129   0.07939   0.08009
H          H       0.73706   0.97423   0.10601   0.08334
H          H       0.91377   0.87265   0.21463   0.09982
H          H       0.82473   0.76739   0.72805   0.13278
H          H       0.89016   0.71421   0.50061   0.13097
H          H       0.68317   0.95665   0.49729   0.15343
H          H       0.77592   0.72585   0.38787   0.06489
H          H       0.88355   0.80828   0.36152   0.08310
H          H       0.69584   0.88463   0.26165   0.11842
H          H       0.42648   0.31709   0.69895   0.13432
H          H       0.25990   0.53112   0.49626   0.13307
H          H       0.50460   0.36340   0.44100   0.14894
H          H       0.28763   0.62963   0.36095   0.05543
H          H       0.21916   0.51287   0.37049   0.08023
H          H       0.34311   0.65722   0.21092   0.11901
H          H       0.16757   0.50196   0.24661   0.10771
H          H       0.23729   0.52482   0.09974   0.09208
H          H       0.13838   0.61032   0.09913   0.07744
H          H       0.18433   0.59611   0.97396   0.13000
H          H       0.31621   0.81552   0.73826   0.13940
H          H       0.38813   0.83933   0.97243   0.14674
C          C       0.22795   0.87486   0.21262   0.59710
C          C       0.94618   0.68658   0.15265   0.57570
C          C       0.16199   0.85935   0.15147  -0.01614
C          C       0.08841   0.78076   0.18091  -0.13259
C          C       0.02603   0.76811   0.12284  -0.01814
C          C       0.03687   0.83317   0.03672  -0.19021
C          C       0.11312   0.90947   0.00711   0.25516
C          C       0.17600   0.92285   0.06464  -0.21096
C          C       0.18749   0.05485   0.88671   0.01964
C          C       0.16328   0.10958   0.79605  -0.12169
C          C       0.29705   0.05948   0.34492   0.59944
C          C       0.05488   0.33957   0.34272   0.54816
C          C       0.25362   0.13321   0.38219  -0.02085
C          C       0.18932   0.21492   0.33779  -0.13400
C          C       0.13697   0.26723   0.38213  -0.01141
C          C       0.15320   0.24391   0.46780  -0.23178
C          C       0.22006   0.16489   0.51042   0.25008
C          C       0.26880   0.10832   0.46780  -0.18429
C          C       0.19652   0.19074   0.64101   0.02781
C          C       0.22708   0.13509   0.73005  -0.11586
C          C       0.44550   0.74365   0.39665   0.58701
C          C       0.72500   0.54569   0.33568   0.59430
C          C       0.52783   0.66924   0.42677  -0.01514
C          C       0.58673   0.64544   0.36804  -0.12557
C          C       0.66161   0.57157   0.39730  -0.02178
C          C       0.68000   0.52429   0.48398  -0.21712
C          C       0.61988   0.54794   0.54223   0.24704
C          C       0.54262   0.61966   0.51340  -0.17716
C          C       0.71465   0.43892   0.65853   0.03121
C          C       0.71244   0.40162   0.75247  -0.13800
C          C       0.77768   0.43839   0.79075  -0.10404
C          C       0.78506   0.40715   0.88341   0.03294
C          C       0.71909   0.28323   0.01580   0.24617
C          C       0.76908   0.33431   0.05915  -0.23115
C          C       0.75631   0.29900   0.14768  -0.01546
C          C       0.69535   0.21116   0.19361  -0.12200
C          C       0.64305   0.16235   0.14897  -0.01188
C          C       0.65527   0.19737   0.06102  -0.19027
C          C       0.79806   0.36898   0.18713   0.59684
C          C       0.56437   0.08168   0.19282   0.54673
C          C       0.77205   0.12514   0.78738   0.59695
C          C       0.05382   0.31343   0.84735   0.57590
C          C       0.83800   0.14065   0.84853  -0.01614
C          C       0.91159   0.21924   0.81909  -0.13267
C          C       0.97396   0.23189   0.87716  -0.01805
C          C       0.96312   0.16683   0.96328  -0.19026
C          C       0.88688   0.09053   0.99289   0.25512
C          C       0.82400   0.07715   0.93536  -0.21099
C          C       0.81251   0.94516   0.11329   0.01977
C          C       0.83671   0.89042   0.20395  -0.12151
C          C       0.70294   0.94052   0.65508   0.59937
C          C       0.94511   0.66043   0.65728   0.54815
C          C       0.74638   0.86680   0.61781  -0.02082
C          C       0.81068   0.78509   0.66221  -0.13382
C          C       0.86302   0.73278   0.61787  -0.01155
C          C       0.84679   0.75609   0.53220  -0.23181
C          C       0.77994   0.83511   0.48958   0.25015
C          C       0.73119   0.89168   0.53220  -0.18437
C          C       0.80347   0.80926   0.35899   0.02782
C          C       0.77291   0.86491   0.26995  -0.11603
C          C       0.55450   0.25635   0.60335   0.58721
C          C       0.27499   0.45432   0.66432   0.59394
C          C       0.47217   0.33076   0.57323  -0.01501
C          C       0.41326   0.35456   0.63196  -0.12569
C          C       0.33838   0.42843   0.60271  -0.02167
C          C       0.31999   0.47571   0.51602  -0.21698
C          C       0.38012   0.45207   0.45777   0.24710
C          C       0.45737   0.38034   0.48660  -0.17732
C          C       0.28535   0.56108   0.34147   0.03138
C          C       0.28755   0.59838   0.24753  -0.13798
C          C       0.22231   0.56162   0.20925  -0.10405
C          C       0.21493   0.59285   0.11659   0.03284
C          C       0.28091   0.71678   0.98420   0.24608
C          C       0.23091   0.66570   0.94085  -0.23108
C          C       0.24368   0.70101   0.85232  -0.01547
C          C       0.30465   0.78884   0.80640  -0.12201
C          C       0.35695   0.83765   0.85103  -0.01182
C          C       0.34472   0.80263   0.93898  -0.19027
C          C       0.20194   0.63102   0.81288   0.59684
C          C       0.43563   0.91832   0.80718   0.54685
O          O       0.30565   0.92955   0.18401  -0.52099
O          O       0.20020   0.83009   0.29217  -0.54265
O          O       0.95185   0.60477   0.22192  -0.56510
O          O       0.87145   0.70440   0.10537  -0.52304
O          O       0.11904   0.96488   0.92184  -0.20232
O          O       0.30833   0.96217   0.39995  -0.56509
O          O       0.31979   0.08881   0.26689  -0.51328
O          O       0.99711   0.36924   0.39125  -0.54144
O          O       0.03835   0.36902   0.26469  -0.53383
O          O       0.23903   0.13152   0.59406  -0.19568
O          O       0.44738   0.81479   0.32091  -0.57173
O          O       0.37076   0.73012   0.44829  -0.50942
O          O       0.79985   0.48898   0.36215  -0.51968
O          O       0.69918   0.58542   0.25781  -0.53987
O          O       0.62913   0.50477   0.62770  -0.20067
O          O       0.72409   0.31485   0.92970  -0.19715
O          O       0.81350   0.46829   0.13475  -0.56646
O          O       0.81483   0.33563   0.26510  -0.50796
O          O       0.51390   0.04482   0.14731  -0.54748
O          O       0.54269   0.05432   0.27091  -0.52487
O          O       0.69434   0.07046   0.81599  -0.52070
O          O       0.79980   0.16991   0.70783  -0.54282
O          O       0.04815   0.39523   0.77808  -0.56505
O          O       0.12854   0.29560   0.89463  -0.52337
O          O       0.88095   0.03512   0.07816  -0.20244
O          O       0.69167   0.03783   0.60005  -0.56497
O          O       0.68021   0.91120   0.73311  -0.51331
O          O       0.00288   0.63077   0.60875  -0.54154
O          O       0.96164   0.63099   0.73531  -0.53373
O          O       0.76097   0.86848   0.40594  -0.19548
O          O       0.55262   0.18521   0.67909  -0.57171
O          O       0.62924   0.26988   0.55171  -0.50965
O          O       0.20014   0.51102   0.63785  -0.51932
O          O       0.30082   0.41459   0.74219  -0.53994
O          O       0.37087   0.49523   0.37230  -0.20101
O          O       0.27591   0.68515   0.07030  -0.19708
O          O       0.18650   0.53171   0.86525  -0.56646
O          O       0.18516   0.66438   0.73490  -0.50795
O          O       0.48610   0.95518   0.85269  -0.54747
O          O       0.45731   0.94568   0.72909  -0.52501

