data_crystal

_audit_creation_method 'AiiDA-DDEC plugin'

_cell_length_a        13.89157
_cell_length_b        13.90227
_cell_length_c        15.74574

_cell_angle_alpha     90.05885
_cell_angle_beta     89.99244
_cell_angle_gamma     120.03642

_symmetry_space_group_name_Hall 'P 1'
_symmetry_space_group_name_H-M  'P 1'

loop_
_symmetry_equiv_pos_as_xyz
 'x,y,z'

loop_
_atom_site_label
_atom_site_type_symbol
_atom_site_fract_x
_atom_site_fract_y
_atom_site_fract_z
_atom_site_charge
Gd         Gd      0.33382   0.66879   0.74832   1.99638
Gd         Gd      0.66689   0.33301   0.74952   1.99252
Gd         Gd      0.66726   0.33329   0.25059   1.99219
Gd         Gd      0.33440   0.66595   0.25175   1.99588
Ni         Ni      0.00137   0.50122   0.00019   1.07074
Ni         Ni      0.49939  -0.00222  -0.00004   1.07106
Ni         Ni      0.50149   0.50356  -0.00030   1.07275
Ni         Ni      0.50043   0.49901   0.50015   1.07323
Ni         Ni      0.50068   0.00244   0.49883   1.07314
Ni         Ni     -0.00199   0.49883   0.50118   1.07305
H          H       0.18452   0.36068   0.85628   0.11385
H          H       0.07318   0.33154   0.78412   0.08928
H          H       0.17398   0.81679   0.85614   0.11521
H          H       0.25691   0.92846   0.78431   0.08973
H          H       0.64579   0.82757   0.85437   0.11491
H          H       0.66918   0.74289   0.78057   0.08983
H          H       0.81417   0.63982   0.85681   0.11496
H          H       0.92647   0.67075   0.78524   0.08972
H          H       0.82561   0.18482   0.85661   0.11546
H          H       0.74433   0.07321   0.78426   0.09041
H          H       0.36021   0.17713   0.85663   0.11539
H          H       0.33235   0.26034   0.78443   0.09062
H          H       0.82458   0.64681   0.64493   0.11447
H          H       0.73868   0.66678   0.72001   0.08981
H          H       0.35381   0.17989   0.64519   0.11437
H          H       0.33317   0.07347   0.71977   0.09007
H          H       0.81982   0.17345   0.64501   0.11416
H          H       0.92733   0.26034   0.71876   0.09032
H          H       0.17519   0.35456   0.64481   0.11416
H          H       0.26040   0.33373   0.71956   0.08943
H          H       0.64424   0.81936   0.64286   0.11441
H          H       0.67035   0.92968   0.71517   0.08933
H          H       0.17653   0.82447   0.64390   0.11494
H          H       0.07080   0.74003   0.71933   0.09082
H          H       0.81434   0.63932   0.14310   0.11474
H          H       0.92710   0.67099   0.21449   0.09011
H          H       0.82577   0.18530   0.14324   0.11478
H          H       0.74366   0.07264   0.21437   0.08935
H          H       0.35974   0.17764   0.14264   0.11480
H          H       0.33281   0.26135   0.21483   0.08970
H          H       0.18349   0.35658   0.14432   0.11389
H          H       0.07237   0.32956   0.21626   0.08983
H          H       0.17560   0.81534   0.14449   0.11475
H          H       0.25975   0.92533   0.21763   0.09021
H          H       0.64402   0.82658   0.14412   0.11493
H          H       0.67268   0.74379   0.21591   0.08953
H          H       0.17416   0.35326   0.35595   0.11533
H          H       0.26025   0.33127   0.28244   0.08965
H          H       0.64829   0.82457   0.35688   0.11424
H          H       0.67000   0.92987   0.28102   0.09007
H          H       0.18071   0.82320   0.35652   0.11479
H          H       0.07211   0.73821   0.28292   0.09164
H          H       0.82487   0.64862   0.35490   0.11406
H          H       0.73744   0.66618   0.28016   0.09006
H          H       0.35342   0.18054   0.35389   0.11428
H          H       0.33274   0.07352   0.27972   0.09008
H          H       0.82033   0.17387   0.35593   0.11609
H          H       0.92724   0.25954   0.28169   0.09004
C          C       0.12454   0.47579   0.86326   0.62893
C          C       0.15006   0.39808   0.81279  -0.11173
C          C       0.34905   0.87636   0.86341   0.63009
C          C       0.24599   0.85137   0.81274  -0.11263
C          C       0.52717   0.65309   0.86281   0.63012
C          C       0.60512   0.75540   0.81128  -0.11300
C          C       0.87660   0.52650   0.86371   0.63016
C          C       0.84984   0.60348   0.81343  -0.11343
C          C       0.64942   0.12257   0.86349   0.63111
C          C       0.75345   0.14937   0.81328  -0.11414
C          C       0.47656   0.35250   0.86369   0.63025
C          C       0.39816   0.24906   0.81325  -0.11403
C          C       0.65070   0.52690   0.63589   0.62792
C          C       0.75266   0.60444   0.68799  -0.11184
C          C       0.47302   0.12481   0.63560   0.62897
C          C       0.39583   0.14961   0.68785  -0.10917
C          C       0.87431   0.34744   0.63544   0.62867
C          C       0.85038   0.24596   0.68757  -0.11223
C          C       0.34924   0.47378   0.63568   0.63053
C          C       0.24725   0.39663   0.68776  -0.11148
C          C       0.52740   0.87806   0.63462   0.62926
C          C       0.60507   0.85272   0.68566  -0.11132
C          C       0.12225   0.65035   0.63664   0.63041
C          C       0.14695   0.75320   0.68756  -0.11371
C          C       0.87659   0.52606   0.13662   0.63092
C          C       0.85013   0.60345   0.18676  -0.11436
C          C       0.64979   0.12343   0.13635   0.62952
C          C       0.75364   0.14969   0.18657  -0.11238
C          C       0.47707   0.35273   0.13594   0.63153
C          C       0.39833   0.24951   0.18614  -0.11285
C          C       0.12496   0.47324   0.13641   0.62976
C          C       0.14957   0.39507   0.18729  -0.11278
C          C       0.35049   0.87363   0.13686   0.62909
C          C       0.24753   0.84835   0.18792  -0.11166
C          C       0.52804   0.65168   0.13683   0.63153
C          C       0.60632   0.75465   0.18755  -0.11333
C          C       0.34861   0.47240   0.36493   0.63188
C          C       0.24650   0.39446   0.31316  -0.11368
C          C       0.52822   0.87822   0.36344   0.62999
C          C       0.60674   0.85379   0.31270  -0.11184
C          C       0.12366   0.64882   0.36514   0.63061
C          C       0.14888   0.75107   0.31345  -0.11345
C          C       0.65152   0.52700   0.36456   0.62847
C          C       0.75279   0.60484   0.31218  -0.11116
C          C       0.47243   0.12514   0.36397   0.62709
C          C       0.39546   0.14994   0.31146  -0.11012
C          C       0.87502   0.34810   0.36471   0.62907
C          C       0.85065   0.24590   0.31302  -0.11300
O          O       0.04312   0.42525   0.91418  -0.56743
O          O       0.18428   0.57943   0.85282  -0.62614
O          O       0.38105   0.95794   0.91426  -0.56636
O          O       0.39226   0.81597   0.85317  -0.62928
O          O       0.57732   0.62205   0.91392  -0.56990
O          O       0.42344   0.60951   0.85284  -0.62677
O          O       0.95837   0.57713   0.91433  -0.56810
O          O       0.81736   0.42276   0.85314  -0.62889
O          O       0.61829   0.04111   0.91423  -0.56810
O          O       0.60485   0.18164   0.85274  -0.62818
O          O       0.42682   0.38502   0.91390  -0.56895
O          O       0.58026   0.39552   0.85334  -0.62774
O          O       0.61909   0.57691   0.58512  -0.56755
O          O       0.60793   0.42326   0.64503  -0.62571
O          O       0.42306   0.04342   0.58461  -0.56576
O          O       0.57680   0.18535   0.64516  -0.62773
O          O       0.95573   0.37873   0.58458  -0.56490
O          O       0.81387   0.39070   0.64494  -0.62572
O          O       0.38066   0.42342   0.58506  -0.56854
O          O       0.39206   0.57751   0.64496  -0.62880
O          O       0.57759   0.95918   0.58353  -0.56864
O          O       0.42368   0.81883   0.64520  -0.62684
O          O       0.03806   0.61577   0.58813  -0.56625
O          O       0.18517   0.60962   0.64471  -0.63002
O          O       0.95825   0.57662   0.08597  -0.56915
O          O       0.81743   0.42234   0.14700  -0.62781
O          O       0.61845   0.04161   0.08580  -0.56859
O          O       0.60528   0.18260   0.14700  -0.62819
O          O       0.42746   0.38515   0.08560  -0.56866
O          O       0.58068   0.39561   0.14669  -0.62823
O          O       0.04309   0.42366   0.08569  -0.56826
O          O       0.18580   0.57677   0.14685  -0.62807
O          O       0.38086   0.95461   0.08569  -0.56892
O          O       0.39517   0.81464   0.14720  -0.62674
O          O       0.57793   0.62027   0.08576  -0.56859
O          O       0.42434   0.60800   0.14709  -0.62762
O          O       0.38123   0.42278   0.41506  -0.56712
O          O       0.39086   0.57604   0.35561  -0.62992
O          O       0.57777   0.96196   0.41235  -0.56637
O          O       0.42446   0.81531   0.35512  -0.62952
O          O       0.04215   0.61841   0.41599  -0.57098
O          O       0.18359   0.60509   0.35530  -0.62566
O          O       0.61960   0.57679   0.41531  -0.56704
O          O       0.60912   0.42341   0.35506  -0.62632
O          O       0.42200   0.04359   0.41469  -0.56614
O          O       0.57631   0.18561   0.35500  -0.62516
O          O       0.95659   0.37991   0.41553  -0.56582
O          O       0.81456   0.39129   0.35478  -0.62809
O          O       0.22896   0.46166   0.74877  -0.25438
O          O       0.23059   0.77254   0.74857  -0.25279
O          O       0.54086   0.77260   0.74890  -0.25512
O          O       0.77164   0.53973   0.74884  -0.25374
O          O       0.76797   0.22804   0.74925  -0.25460
O          O       0.46116   0.23284   0.74904  -0.25614
O          O       0.77223   0.54020   0.25149  -0.25285
O          O       0.76798   0.22758   0.25132  -0.25435
O          O       0.46101   0.23282   0.25033  -0.25474
O          O       0.22907   0.45874   0.25111  -0.25290
O          O       0.23060   0.76804   0.25120  -0.25576
O          O       0.54273   0.76996   0.25164  -0.25346

