data_crystal

_audit_creation_method 'AiiDA-DDEC plugin'

_cell_length_a         9.26445
_cell_length_b        22.43428
_cell_length_c        22.43432

_cell_angle_alpha     69.76178
_cell_angle_beta     77.66749
_cell_angle_gamma     77.66747

_symmetry_space_group_name_Hall 'P 1'
_symmetry_space_group_name_H-M  'P 1'

loop_
_symmetry_equiv_pos_as_xyz
 'x,y,z'

loop_
_atom_site_label
_atom_site_type_symbol
_atom_site_fract_x
_atom_site_fract_y
_atom_site_fract_z
_atom_site_charge
Zn         Zn      0.91896   0.02408   0.13494   0.77619
Zn         Zn      0.09680   0.50375   0.30593   0.78393
Zn         Zn      0.58103   0.36505   0.47592   0.77614
Zn         Zn      0.40319   0.19406   0.99625   0.78422
Zn         Zn      0.41896   0.63494   0.52408   0.77621
Zn         Zn      0.59680   0.80593   0.00375   0.78419
Zn         Zn      0.08103   0.97591   0.86506   0.77630
Zn         Zn      0.90319   0.49625   0.69407   0.78389
Zn         Zn     -0.00000   0.00000   0.00000   0.72919
Zn         Zn      0.50000   0.50000   0.50000   0.72925
H          H       0.57319   0.12724   0.12061   0.13621
H          H       0.69326   0.10263   0.93843   0.12774
H          H       0.92681   0.37939   0.37276   0.13619
H          H       0.80673   0.56157   0.39736   0.12789
H          H       0.67256   0.62041   0.62748   0.13592
H          H       0.76631   0.43799   0.60341   0.12668
H          H       0.82742   0.87252   0.87959   0.13590
H          H       0.73368   0.89660   0.06200   0.12663
H          H       0.42681   0.87275   0.87940   0.13616
H          H       0.30673   0.89736   0.06157   0.12788
H          H       0.07318   0.62061   0.62724   0.13619
H          H       0.19326   0.43843   0.60264   0.12788
H          H       0.32743   0.37959   0.37253   0.13606
H          H       0.23369   0.56200   0.39660   0.12658
H          H       0.17257   0.12748   0.12041   0.13600
H          H       0.26631   0.10340   0.93800   0.12650
H          H       0.93146   0.84434   0.29515   0.12056
H          H       0.04004   0.81534   0.10991   0.11179
H          H       0.07170   0.69555   0.16402   0.13098
H          H       0.96310   0.72424   0.34851   0.11884
H          H       0.21576   0.26979   0.30121   0.10914
H          H       0.21528   0.43665   0.13420   0.12210
H          H       0.56853   0.20484   0.65567   0.12053
H          H       0.45995   0.39009   0.68466   0.11157
H          H       0.42829   0.33598   0.80445   0.13105
H          H       0.53689   0.15149   0.77577   0.11890
H          H       0.28423   0.19879   0.23021   0.10915
H          H       0.28471   0.36580   0.06336   0.12211
H          H       0.43146   0.79515   0.34434   0.12055
H          H       0.54004   0.60990   0.31534   0.11182
H          H       0.57170   0.66402   0.19556   0.13096
H          H       0.46310   0.84851   0.22424   0.11881
H          H       0.71576   0.80120   0.76979   0.10891
H          H       0.71528   0.63420   0.93665   0.12224
H          H       0.06853   0.15566   0.70485   0.12056
H          H       0.95995   0.18465   0.89010   0.11199
H          H       0.92829   0.30444   0.83598   0.13097
H          H       0.03690   0.27576   0.65150   0.11869
H          H       0.78423   0.73021   0.69880   0.10897
H          H       0.78471   0.56335   0.86580   0.12222
C          C       0.63544   0.11083   0.08090   0.15049
C          C       0.69639   0.09801   0.98788   0.16888
C          C       0.86455   0.41910   0.38917   0.15041
C          C       0.80360   0.51212   0.40199   0.16855
C          C       0.66792   0.58055   0.61137   0.15238
C          C       0.71633   0.48739   0.59884   0.16867
C          C       0.83207   0.88863   0.91945   0.15262
C          C       0.78366   0.90116   0.01261   0.16884
C          C       0.36455   0.88917   0.91910   0.15021
C          C       0.30360   0.90199   0.01213   0.16882
C          C       0.13544   0.58090   0.61083   0.15044
C          C       0.19639   0.48787   0.59802   0.16897
C          C       0.33207   0.41945   0.38863   0.15231
C          C       0.28366   0.51260   0.40116   0.16866
C          C       0.16792   0.11137   0.08055   0.15238
C          C       0.21633   0.09884   0.98740   0.16866
C          C       0.01934   0.70360   0.25926  -0.00848
C          C       0.96566   0.90680   0.16875   0.57066
C          C       0.98460   0.83663   0.19952  -0.05242
C          C       0.96220   0.81141   0.26702  -0.09132
C          C       0.03773   0.63232   0.29347   0.54995
C          C       0.02379   0.79504   0.16204  -0.09020
C          C       0.04119   0.72874   0.19191  -0.09163
C          C       0.21163   0.35710   0.22201  -0.03464
C          C       0.97954   0.74529   0.29648  -0.10223
C          C       0.23113   0.28993   0.24914  -0.11345
C          C       0.23080   0.38454   0.15480  -0.09904
C          C       0.17044   0.39664   0.26681   0.55274
C          C       0.48065   0.24073   0.79640  -0.00848
C          C       0.53433   0.33125   0.59321   0.57064
C          C       0.51539   0.30048   0.66337  -0.05244
C          C       0.53779   0.23298   0.68859  -0.09138
C          C       0.46225   0.20654   0.86768   0.55000
C          C       0.47620   0.33796   0.70496  -0.09008
C          C       0.45880   0.30809   0.77126  -0.09174
C          C       0.28836   0.27799   0.14291  -0.03461
C          C       0.52045   0.20352   0.75472  -0.10202
C          C       0.26886   0.25086   0.21007  -0.11360
C          C       0.26919   0.34520   0.11546  -0.09919
C          C       0.32955   0.23319   0.10336   0.55276
C          C       0.51934   0.75926   0.20361  -0.00846
C          C       0.46566   0.66875   0.40680   0.57055
C          C       0.48460   0.69952   0.33663  -0.05231
C          C       0.46220   0.76702   0.31141  -0.09140
C          C       0.53774   0.79346   0.13233   0.55004
C          C       0.52379   0.66204   0.29504  -0.09024
C          C       0.54119   0.69191   0.22874  -0.09162
C          C       0.71163   0.72200   0.85710  -0.03487
C          C       0.47954   0.79648   0.24529  -0.10216
C          C       0.73113   0.74914   0.78993  -0.11346
C          C       0.73080   0.65479   0.88454  -0.09897
C          C       0.67044   0.76680   0.89664   0.55309
C          C       0.98065   0.29639   0.74074  -0.00856
C          C       0.03433   0.09320   0.83125   0.57073
C          C       0.01539   0.16336   0.80048  -0.05243
C          C       0.03779   0.18858   0.73298  -0.09136
C          C       0.96226   0.36767   0.70654   0.55006
C          C       0.97620   0.20496   0.83797  -0.09008
C          C       0.95880   0.27125   0.80809  -0.09169
C          C       0.78836   0.64290   0.77800  -0.03469
C          C       0.02045   0.25471   0.70352  -0.10229
C          C       0.76886   0.71007   0.75086  -0.11349
C          C       0.76919   0.61546   0.84520  -0.09900
C          C       0.82955   0.60336   0.73319   0.55284
N          N       0.75740   0.06631   0.08328  -0.22592
N          N       0.59392   0.13179   0.02200  -0.30158
N          N       0.79723   0.05809   0.02332  -0.21313
N          N       0.74259   0.41671   0.43369  -0.22571
N          N       0.90608   0.47800   0.36821  -0.30164
N          N       0.70276   0.47667   0.44191  -0.21300
N          N       0.58798   0.58248   0.56758  -0.22771
N          N       0.74958   0.52182   0.63209  -0.30407
N          N       0.61861   0.52247   0.55948  -0.21365
N          N       0.91201   0.93242   0.91752  -0.22808
N          N       0.75041   0.86790   0.97818  -0.30397
N          N       0.88138   0.94052   0.97753  -0.21373
N          N       0.24259   0.93369   0.91672  -0.22582
N          N       0.40607   0.86821   0.97800  -0.30151
N          N       0.20276   0.94190   0.97668  -0.21302
N          N       0.25740   0.58328   0.56631  -0.22607
N          N       0.09391   0.52200   0.63179  -0.30138
N          N       0.29723   0.52332   0.55809  -0.21333
N          N       0.41201   0.41751   0.43242  -0.22745
N          N       0.25041   0.47818   0.36791  -0.30403
N          N       0.38138   0.47752   0.44052  -0.21391
N          N       0.08798   0.06758   0.08248  -0.22762
N          N       0.24958   0.13209   0.02182  -0.30413
N          N       0.11862   0.05948   0.02247  -0.21353
O          O       0.01434   0.61241   0.35381  -0.57009
O          O       0.92821   0.94359   0.20529  -0.51162
O          O       0.98470   0.93230   0.10739  -0.56171
O          O       0.07799   0.59590   0.25679  -0.53841
O          O       0.15050   0.45870   0.24088  -0.53962
O          O       0.15676   0.36868   0.32670  -0.58745
O          O       0.48565   0.14618   0.88760  -0.57013
O          O       0.57177   0.29471   0.55642  -0.51160
O          O       0.51529   0.39261   0.56770  -0.56179
O          O       0.42200   0.24320   0.90410  -0.53845
O          O       0.34950   0.25912   0.04131  -0.53971
O          O       0.34323   0.17330   0.13132  -0.58745
O          O       0.51434   0.85382   0.11240  -0.57036
O          O       0.42822   0.70528   0.44359  -0.51170
O          O       0.48470   0.60739   0.43230  -0.56166
O          O       0.57799   0.75679   0.09591  -0.53833
O          O       0.65049   0.74088   0.95870  -0.53948
O          O       0.65676   0.82670   0.86868  -0.58790
O          O       0.98565   0.38759   0.64619  -0.57041
O          O       0.07178   0.05641   0.79472  -0.51180
O          O       0.01529   0.06770   0.89262  -0.56157
O          O       0.92200   0.40409   0.74321  -0.53822
O          O       0.84949   0.54130   0.75912  -0.53944
O          O       0.84323   0.63132   0.67330  -0.58768

