data_crystal

_audit_creation_method 'AiiDA-DDEC plugin'

_cell_length_a        11.39979
_cell_length_b        13.80147
_cell_length_c        24.90102

_cell_angle_alpha     90.06182
_cell_angle_beta     89.97008
_cell_angle_gamma     114.49092

_symmetry_space_group_name_Hall 'P 1'
_symmetry_space_group_name_H-M  'P 1'

loop_
_symmetry_equiv_pos_as_xyz
 'x,y,z'

loop_
_atom_site_label
_atom_site_type_symbol
_atom_site_fract_x
_atom_site_fract_y
_atom_site_fract_z
_atom_site_charge
Cd         Cd      0.35307   0.17436   0.83761   0.84231
Cd         Cd      0.85368   0.67471   0.66236   0.84327
Cd         Cd      0.64692   0.82564   0.16240   0.84231
Cd         Cd      0.14631   0.32529   0.33764   0.84320
H          H       0.18908   0.77979   0.69857   0.13427
H          H       0.42625   0.59717   0.84759   0.08886
H          H       0.37230   0.88830   0.85088   0.12078
H          H       0.40370   0.44587   0.05753   0.13784
H          H       0.07621   0.16685   0.23551   0.13782
H          H       0.12729   0.61155   0.35093   0.11755
H          H       0.97855   0.93607   0.62930   0.11510
H          H       0.88285   0.40943   0.20184   0.10842
H          H       0.63950   0.01348   0.32607   0.13442
H          H       0.89911   0.04537   0.08557   0.10129
H          H       0.37974   0.16438   0.68469   0.16989
H          H       0.82034   0.20776   0.61342   0.09605
H          H       0.17965   0.79224   0.38658   0.09596
H          H       0.87270   0.38845   0.64908   0.11757
H          H       0.81252   0.79901   0.04571   0.11844
H          H       0.60091   0.45446   0.58561   0.10136
H          H       0.07906   0.16693   0.72817   0.11110
H          H       0.53180   0.29552   0.04477   0.12883
H          H       0.71575   0.97585   0.66102   0.10461
H          H       0.56750   0.22520   0.94303   0.13317
H          H       0.43249   0.77479   0.05698   0.13352
H          H       0.47881   0.43605   0.87047   0.11445
H          H       0.62025   0.83561   0.31532   0.16984
H          H       0.57584   0.66676   0.26445   0.13756
H          H       0.14740   0.11344   0.06780   0.14111
H          H       0.39908   0.54554   0.41440   0.10158
H          H       0.06758   0.72503   0.55666   0.13337
H          H       0.21586   0.47628   0.83903   0.10446
H          H       0.78413   0.52371   0.16098   0.10439
H          H       0.64849   0.51961   0.75118   0.11836
H          H       0.92093   0.83306   0.27183   0.11113
H          H       0.11714   0.59057   0.79816   0.10849
H          H       0.18747   0.20099   0.95429   0.11866
H          H       0.09628   0.05406   0.55740   0.13822
H          H       0.31233   0.29892   0.45430   0.11744
H          H       0.64724   0.61350   0.43209   0.14036
H          H       0.59629   0.55413   0.94248   0.13813
H          H       0.38505   0.91068   0.29838   0.10795
H          H       0.90371   0.94594   0.44260   0.13809
H          H       0.02144   0.06393   0.37071   0.11485
H          H       0.93241   0.27497   0.44335   0.13353
H          H       0.32052   0.70813   0.88696   0.09644
H          H       0.46819   0.70448   0.95523   0.12889
H          H       0.10088   0.95463   0.91443   0.10139
H          H       0.57374   0.40283   0.15242   0.08882
H          H       0.14788   0.01973   0.74890   0.11929
H          H       0.42179   0.33383   0.22819   0.11051
H          H       0.13903   0.51324   0.17394   0.13544
H          H       0.35150   0.48039   0.24882   0.11837
H          H       0.57820   0.66617   0.77181   0.11039
H          H       0.03180   0.79539   0.45506   0.12884
H          H       0.11999   0.33548   0.18478   0.17031
H          H       0.36049   0.98652   0.67393   0.13445
H          H       0.42415   0.33324   0.73555   0.13769
H          H       0.35275   0.38649   0.56791   0.14032
H          H       0.81091   0.22020   0.30143   0.13414
H          H       0.96819   0.20461   0.54495   0.12903
H          H       0.30993   0.72027   0.19851   0.13420
H          H       0.67947   0.29187   0.11305   0.09621
H          H       0.88000   0.66452   0.81522   0.17011
H          H       0.07355   0.90287   0.34734   0.08929
H          H       0.68766   0.70108   0.54570   0.11774
H          H       0.85211   0.98026   0.25110   0.11941
H          H       0.52118   0.56394   0.12954   0.11428
H          H       0.92378   0.83315   0.76449   0.13786
H          H       0.62769   0.11170   0.14913   0.12052
H          H       0.92644   0.09713   0.65267   0.08922
H          H       0.69006   0.27972   0.80150   0.13406
H          H       0.86096   0.48676   0.82606   0.13534
H          H       0.85259   0.88656   0.93221   0.14108
H          H       0.61494   0.08932   0.70162   0.10789
H          H       0.28424   0.02414   0.33898   0.10491
C          C       0.82620   0.88135   0.42217  -0.27011
C          C       0.60489   0.47810   0.71464  -0.02879
C          C       0.96894   0.76689   0.48947  -0.11777
C          C       0.78054   0.77775   0.44206   0.19430
C          C       0.21945   0.22225   0.55794   0.19456
C          C       0.28222   0.20194   0.30531   0.55755
C          C       0.91622   0.33908   0.66645  -0.13444
C          C       0.11924   0.21660   0.12720   0.20835
C          C       0.97361   0.51769   0.26592  -0.06212
C          C       0.17739   0.19457   0.08214  -0.26832
C          C       0.82825   0.15683   0.32035  -0.03183
C          C       0.14322   0.35484   0.77990  -0.07283
C          C       0.91559   0.04985   0.12844   0.06823
C          C       0.11096   0.76114   0.35379  -0.10837
C          C       0.99573   0.88589   0.79200  -0.08998
C          C       0.24160   0.55538   0.16733  -0.10084
C          C       0.34283   0.04992   0.30297  -0.10383
C          C       0.02638   0.48231   0.73408  -0.06227
C          C       0.66392   0.81933   0.35128  -0.23447
C          C       0.38883   0.73882   0.85398  -0.10816
C          C       0.78355   0.70235   0.19459   0.55914
C          C       0.85677   0.64516   0.22011  -0.07282
C          C       0.50378   0.61422   0.29196  -0.09104
C          C       0.46892   0.26697   0.01037  -0.11665
C          C       0.51669   0.76982   0.03936  -0.03485
C          C       0.93799   0.68364   0.26643   0.05629
C          C       0.28055   0.27770   0.05793   0.19479
C          C       0.48330   0.23018   0.96064  -0.03500
C          C       0.23224   0.09912   0.62353   0.19832
C          C       0.03314   0.21436   0.71078  -0.13806
C          C       0.94864   0.17643   0.66835  -0.10376
C          C       0.97308   0.55676   0.71121   0.55725
C          C       0.52497   0.98123   0.76566  -0.06044
C          C       0.17379   0.11864   0.57783  -0.27009
C          C       0.71528   0.78732   0.03540   0.08701
C          C       0.71777   0.79805   0.69470   0.55779
C          C       0.10431   0.97825   0.78541  -0.02855
C          C       0.67731   0.69464   0.41781  -0.26728
C          C       0.47090   0.05526   0.78845   0.55779
C          C       0.88903   0.23886   0.64621  -0.10844
C          C       0.02691   0.44324   0.28880   0.55732
C          C       0.75839   0.44462   0.83267  -0.10109
C          C       0.55167   0.32371   0.16825  -0.10451
C          C       0.08377   0.66092   0.33355  -0.13454
C          C       0.49621   0.38578   0.70804  -0.09079
C          C       0.89568   0.02175   0.21459  -0.02838
C          C       0.35713   0.14574   0.28008  -0.07358
C          C       0.15777   0.45072   0.80286  -0.10471
C          C       0.55918   0.42061   0.85618   0.07391
C          C       0.61116   0.26118   0.14602  -0.10827
C          C       0.32620   0.38130   0.07793  -0.26964
C          C       0.96685   0.78564   0.28922  -0.13816
C          C       0.52909   0.94474   0.21155   0.55793
C          C       0.28471   0.21268   0.96461   0.08709
C          C       0.44832   0.67629   0.83175  -0.10426
C          C       0.49866   0.11999   0.21071   0.04950
C          C       0.46752   0.28616   0.21085  -0.13695
C          C       0.25800   0.94447   0.66715  -0.10674
C          C       0.67232   0.34313   0.82025  -0.03093
C          C       0.32767   0.65687   0.17975  -0.03064
C          C       0.21515   0.28730   0.46469   0.08699
C          C       0.59969   0.01316   0.71962  -0.11582
C          C       0.44081   0.57939   0.14382   0.07389
C          C       0.05893   0.92071   0.64359   0.06587
C          C       0.47502   0.01877   0.23435  -0.06046
C          C       0.74199   0.05553   0.33285  -0.10312
C          C       0.33607   0.18067   0.64872  -0.23444
C          C       0.58423   0.16123   0.16646  -0.13610
C          C       0.67379   0.61870   0.92208  -0.26952
C          C       0.05136   0.82357   0.33165  -0.10376
C          C       0.53247   0.71384   0.78915  -0.13723
C          C       0.56134   0.81565   0.76622   0.05703
C          C      -0.00217   0.61923   0.28946   0.05118
C          C       0.00426   0.11411   0.20801  -0.08999
C          C       0.39510   0.52189   0.28536  -0.02899
C          C       0.43865   0.18434   0.23379   0.05711
C          C       0.08440   0.95015   0.87156   0.06836
C          C       0.41576   0.83877   0.83354  -0.13617
C          C       0.32268   0.30536   0.58219  -0.26752
C          C       0.16389   0.31926   0.14882  -0.23432
C          C       0.03105   0.23311   0.51053  -0.11748
C          C       0.71944   0.72230   0.94207   0.19462
C          C       0.38084   0.28333   0.62719   0.20820
C          C       0.82260   0.80542   0.91786  -0.26837
C          C       0.41535   0.54996   0.37151   0.06840
C          C       0.50133   0.88001   0.78929   0.04961
C          C       0.40030   0.98684   0.28038  -0.11571
C          C       0.00216   0.38077   0.71054   0.05124
C          C       0.17174   0.84317   0.67965  -0.03216
C          C       0.64286   0.85426   0.71992  -0.07359
C          C       0.73227   0.59921   0.87633   0.20554
C          C       0.83611   0.68074   0.85118  -0.23458
C          C       0.01664   0.26996   0.46088  -0.03429
C          C       0.78484   0.71269   0.53531   0.08711
C          C       0.76775   0.90088   0.37647   0.20188
C          C       0.21644   0.29765   0.80541   0.55913
C          C       0.61915   0.71667   0.37281   0.20808
C          C       0.06200   0.31636   0.73357   0.05614
C          C       0.53107   0.73303   0.98964  -0.11669
C          C       0.88075   0.78340   0.87280   0.20864
C          C       0.65716   0.95008   0.69704  -0.10376
C          C       0.98335   0.73004   0.53913  -0.03455
C          C       0.84222   0.54927   0.19714  -0.10468
C          C       0.58464   0.45004   0.62849   0.06817
C          C       0.26772   0.40079   0.12367   0.20556
C          C       0.94106   0.07929   0.35641   0.06924
C          C       0.89895   0.48584   0.21983  -0.11537
C          C       0.10104   0.51416   0.78017  -0.11534
N          N       0.13150   0.30305   0.43281  -0.28075
N          N       0.18548   0.99377   0.64395   0.03230
N          N       0.68563   0.49384   0.85582   0.01016
N          N       0.84105   0.98293   0.16506  -0.27626
N          N       0.81451   0.00623   0.35605   0.02306
N          N       0.86849   0.69695   0.56720  -0.28040
N          N       0.84173   0.75511   0.48728   0.01040
N          N       0.04884   0.82984   0.66496  -0.27398
N          N       0.45071   0.67037   0.16511  -0.27493
N          N       0.15894   0.01707   0.83494  -0.27652
N          N       0.34168   0.25508   0.01264   0.00968
N          N       0.34062   0.48302   0.33488  -0.27609
N          N       0.65832   0.74492   0.98736   0.00967
N          N       0.15826   0.24489   0.51272   0.01031
N          N       0.31436   0.50615   0.14419   0.01010
N          N       0.54928   0.32963   0.83489  -0.27452
N          N       0.95115   0.17016   0.33504  -0.27456
N          N       0.48342   0.36838   0.65289   0.01614
N          N       0.01683   0.13152   0.15286   0.01587
N          N       0.65937   0.51697   0.66512  -0.27636
N          N       0.98316   0.86848   0.84714   0.01586
N          N       0.51657   0.63162   0.34711   0.01603
N          N       0.63160   0.80294   0.06738  -0.28019
N          N       0.36839   0.19706   0.93262  -0.28030
O          O       0.75040   0.73764   0.72502  -0.55479
O          O       0.24959   0.26235   0.27498  -0.55495
O          O       0.74991   0.76245   0.22485  -0.55564
O          O       0.25008   0.23755   0.77516  -0.55596
O          O       0.96981   0.56600   0.66024  -0.56003
O          O       0.75403   0.68670   0.14534  -0.59479
O          O       0.47039   0.06653   0.83935  -0.55999
O          O       0.52960   0.93347   0.16065  -0.56022
O          O       0.93446   0.60869   0.74387  -0.58333
O          O       0.03018   0.43400   0.33976  -0.55973
O          O       0.74954   0.81447   0.64564  -0.59483
O          O       0.42885   0.10467   0.75582  -0.58248
O          O       0.25045   0.18552   0.35436  -0.59435
O          O       0.06553   0.39131   0.25613  -0.58378
O          O       0.57114   0.89533   0.24419  -0.58256
O          O       0.24596   0.31330   0.85466  -0.59445

