data_crystal

_audit_creation_method 'AiiDA-DDEC plugin'

_cell_length_a        11.73124
_cell_length_b        14.19792
_cell_length_c        29.60219

_cell_angle_alpha     90.10933
_cell_angle_beta     89.87787
_cell_angle_gamma     101.85637

_symmetry_space_group_name_Hall 'P 1'
_symmetry_space_group_name_H-M  'P 1'

loop_
_symmetry_equiv_pos_as_xyz
 'x,y,z'

loop_
_atom_site_label
_atom_site_type_symbol
_atom_site_fract_x
_atom_site_fract_y
_atom_site_fract_z
_atom_site_charge
Cd         Cd      0.60552   0.08719   0.95652   0.90837
Cd         Cd      0.89475   0.41233   0.45666   0.90841
Cd         Cd      0.39447   0.91280   0.04348   0.90834
Cd         Cd      0.10524   0.58766   0.54335   0.90840
H          H       0.57723   0.09129   0.79622   0.11660
H          H       0.82061   0.33391   0.84751   0.10261
H          H       0.62073   0.14895   0.71784   0.10291
H          H       0.86034   0.39750   0.76954   0.10073
H          H       0.60908   0.22718   0.66275   0.09520
H          H       0.93436   0.40685   0.70479   0.10755
H          H       0.65990   0.27201   0.58329   0.08314
H          H       0.97525   0.45931   0.62652   0.12271
H          H       0.87279   0.07060   0.96135   0.10268
H          H       0.57706   0.86164   0.93600   0.09752
H          H       0.00047   0.94904   0.95915   0.14180
H          H       0.69266   0.73030   0.93422   0.14923
H          H       0.12127   0.71126   0.05623   0.14147
H          H       0.92968   0.56333   0.84777   0.13336
H          H       0.22995   0.57854   0.06015   0.12987
H          H       0.05210   0.43583   0.84997   0.13848
H          H       0.48148   0.42766   0.97903   0.13308
H          H       0.19512   0.20491   0.93455   0.15297
H          H       0.60308   0.30174   0.98306   0.09213
H          H       0.33198   0.08984   0.93727   0.10468
H          H       0.92174   0.40733   0.29659   0.11568
H          H       0.67968   0.16294   0.34710   0.10426
H          H       0.87827   0.35087   0.21795   0.10332
H          H       0.63904   0.10144   0.26893   0.10196
H          H       0.89046   0.27154   0.16218   0.09544
H          H       0.56506   0.09293   0.20490   0.10801
H          H       0.83790   0.22761   0.08267   0.08367
H          H       0.52286   0.04081   0.12669   0.12408
H          H       0.62762   0.42897   0.46167   0.10370
H          H       0.92419   0.63699   0.43630   0.09728
H          H       0.50034   0.55082   0.45907   0.14272
H          H       0.80928   0.76884   0.43451   0.14913
H          H       0.37924   0.78910   0.55626   0.14158
H          H       0.57286   0.93617   0.34791   0.13264
H          H       0.26909   0.92067   0.56007   0.12972
H          H       0.44955   0.06315   0.35005   0.13811
H          H       0.01767   0.07202   0.47874   0.13358
H          H       0.30501   0.29420   0.43437   0.15291
H          H       0.89641   0.19803   0.48258   0.09201
H          H       0.16874   0.40960   0.43734   0.10335
H          H       0.42276   0.90871   0.20378   0.11470
H          H       0.17938   0.66608   0.15249   0.10276
H          H       0.37926   0.85105   0.28216   0.10286
H          H       0.13964   0.60249   0.23046   0.10093
H          H       0.39092   0.77281   0.33725   0.09500
H          H       0.06563   0.59314   0.29522   0.10768
H          H       0.34009   0.72798   0.41671   0.08311
H          H       0.02474   0.54069   0.37348   0.12298
H          H       0.12720   0.92939   0.03865   0.10309
H          H       0.42293   0.13835   0.06400   0.09738
H          H      -0.00048   0.05095   0.04085   0.14201
H          H       0.30733   0.26969   0.06578   0.14899
H          H       0.87872   0.28873   0.94377   0.14133
H          H       0.07032   0.43666   0.15223   0.13642
H          H       0.77004   0.42145   0.93985   0.12983
H          H       0.94789   0.56417   0.15003   0.13859
H          H       0.51851   0.57233   0.02097   0.13325
H          H       0.80487   0.79508   0.06545   0.15265
H          H       0.39691   0.69826   0.01694   0.09226
H          H       0.66801   0.91015   0.06273   0.10446
H          H       0.07825   0.59267   0.70341   0.11616
H          H       0.32032   0.83705   0.65291   0.10391
H          H       0.12172   0.64912   0.78205   0.10354
H          H       0.36095   0.89855   0.73107   0.10161
H          H       0.10953   0.72846   0.83782   0.09571
H          H       0.43493   0.90706   0.79511   0.10760
H          H       0.16209   0.77238   0.91733   0.08393
H          H       0.47713   0.95919   0.87332   0.12379
H          H       0.37237   0.57103   0.53833   0.10341
H          H       0.07580   0.36301   0.56371   0.09756
H          H       0.49965   0.44918   0.54093   0.14244
H          H       0.19071   0.23116   0.56550   0.14941
H          H       0.62075   0.21089   0.44374   0.14145
H          H       0.42713   0.06383   0.65209   0.13284
H          H       0.73090   0.07932   0.43994   0.12956
H          H       0.55044   0.93684   0.64996   0.13836
H          H       0.98232   0.92797   0.52127   0.13337
H          H       0.69498   0.70579   0.56563   0.15333
H          H       0.10358   0.80196   0.51743   0.09172
H          H       0.83125   0.59039   0.56266   0.10369
C          C       0.66972   0.17107   0.87332   0.54776
C          C       0.69637   0.20885   0.82655  -0.02626
C          C       0.63958   0.15784   0.78962  -0.09253
C          C       0.77694   0.29485   0.81863  -0.10117
C          C       0.66367   0.19145   0.74589  -0.13688
C          C       0.79960   0.32941   0.77482  -0.13980
C          C       0.74382   0.27821   0.73736   0.06663
C          C       0.76895   0.31175   0.69040   0.07429
C          C       0.69120   0.27573   0.65517  -0.14153
C          C       0.87143   0.37811   0.67873  -0.13137
C          C       0.71749   0.30176   0.61063  -0.10174
C          C       0.89637   0.40655   0.63411  -0.09575
C          C       0.82022   0.36713   0.59931  -0.05059
C          C       0.84702   0.39014   0.55076   0.55570
C          C       0.83619   0.99466   0.95536   0.09471
C          C       0.67094   0.87743   0.94091   0.10486
C          C       0.90704   0.92702   0.95417  -0.19414
C          C       0.73485   0.80506   0.93964  -0.19742
C          C       0.85456   0.83073   0.94710   0.22645
C          C       0.91898   0.69706   0.90970   0.44104
C          C       0.98513   0.74920   0.98874   0.43521
C          C       0.05128   0.67134   0.99002  -0.06616
C          C       0.98285   0.61771   0.91347  -0.05817
C          C       0.04864   0.60845   0.95265   0.02977
C          C       0.11648   0.66093   0.02817  -0.04525
C          C       0.98207   0.55488   0.87723  -0.06999
C          C       0.17978   0.58711   0.03012  -0.06467
C          C       0.04980   0.48413   0.87842  -0.06933
C          C       0.18025   0.52523   0.99361  -0.07905
C          C       0.11745   0.47525   0.91616  -0.05997
C          C       0.11606   0.53567   0.95411   0.02688
C          C       0.24633   0.44742   0.99657   0.42245
C          C       0.19342   0.40402   0.91539   0.43039
C          C       0.32820   0.32477   0.95717   0.21949
C          C       0.44439   0.35326   0.97046  -0.19664
C          C       0.28518   0.22922   0.94479  -0.19077
C          C       0.51250   0.28387   0.97229   0.09649
C          C       0.36050   0.16512   0.94674   0.10909
C          C       0.82979   0.32786   0.37335   0.55134
C          C       0.80341   0.28916   0.32660  -0.02675
C          C       0.85986   0.34064   0.28973  -0.09365
C          C       0.72325   0.20293   0.31844  -0.10181
C          C       0.83588   0.30765   0.24588  -0.13783
C          C       0.70034   0.16917   0.27448  -0.14341
C          C       0.75591   0.22092   0.23713   0.06942
C          C       0.73034   0.18786   0.19014   0.07408
C          C       0.80780   0.22374   0.15473  -0.14196
C          C       0.62751   0.12183   0.17869  -0.13157
C          C       0.78067   0.19812   0.11021  -0.10213
C          C       0.60176   0.09362   0.13411  -0.09683
C          C       0.67744   0.13320   0.09918  -0.05075
C          C       0.65032   0.11007   0.05075   0.55606
C          C       0.66440   0.50478   0.45548   0.09562
C          C       0.83021   0.62159   0.44109   0.10435
C          C       0.59385   0.57260   0.45410  -0.19436
C          C       0.76663   0.69417   0.43978  -0.19729
C          C       0.64673   0.66878   0.44700   0.22709
C          C       0.58298   0.80267   0.40974   0.44134
C          C       0.51658   0.75100   0.48878   0.43475
C          C       0.45003   0.82872   0.49011  -0.06413
C          C       0.51888   0.88196   0.41355  -0.05986
C          C       0.45252   0.89125   0.45270   0.02946
C          C       0.38417   0.83920   0.52819  -0.04550
C          C       0.51980   0.94451   0.37730  -0.06932
C          C       0.32009   0.91260   0.53008  -0.06489
C          C       0.45169   0.01502   0.37848  -0.06767
C          C       0.31961   0.97430   0.49361  -0.07682
C          C       0.38361   0.02404   0.41622  -0.06332
C          C       0.38465   0.96383   0.45416   0.02830
C          C       0.25255   0.05173   0.49646   0.42483
C          C       0.30781   0.09546   0.41545   0.43732
C          C       0.17161   0.17449   0.45698   0.22595
C          C       0.05519   0.14632   0.47021  -0.19647
C          C       0.21491   0.26999   0.44466  -0.19154
C          C       0.98722   0.21585   0.47198   0.09765
C          C       0.13984   0.33433   0.44667   0.11170
C          C       0.33027   0.82892   0.12669   0.54799
C          C       0.30362   0.79114   0.17346  -0.02605
C          C       0.36041   0.84215   0.21038  -0.09164
C          C       0.22305   0.70514   0.18137  -0.10129
C          C       0.33632   0.80855   0.25411  -0.13684
C          C       0.20039   0.67059   0.22518  -0.13949
C          C       0.25617   0.72178   0.26265   0.06673
C          C       0.23104   0.68824   0.30960   0.07462
C          C       0.30879   0.72427   0.34483  -0.14182
C          C       0.12856   0.62189   0.32127  -0.13169
C          C       0.28250   0.69823   0.38938  -0.10186
C          C       0.10362   0.59344   0.36589  -0.09543
C          C       0.17977   0.63287   0.40070  -0.05055
C          C       0.15297   0.60986   0.44924   0.55562
C          C       0.16380   0.00534   0.04465   0.09474
C          C       0.32905   0.12256   0.05909   0.10450
C          C       0.09295   0.07297   0.04583  -0.19396
C          C       0.26514   0.19494   0.06036  -0.19735
C          C       0.14543   0.16926   0.05290   0.22651
C          C       0.08101   0.30293   0.09030   0.44116
C          C       0.01485   0.25080   0.01127   0.43514
C          C       0.94871   0.32865   0.00998  -0.06629
C          C       0.01714   0.38228   0.08653  -0.05870
C          C       0.95135   0.39154   0.04736   0.03022
C          C       0.88351   0.33906   0.97184  -0.04496
C          C       0.01793   0.44511   0.12277  -0.07238
C          C       0.82022   0.41288   0.96989  -0.06479
C          C       0.95019   0.51586   0.12159  -0.06966
C          C       0.81974   0.47477   0.00639  -0.07888
C          C       0.88254   0.52474   0.08384  -0.05995
C          C       0.88393   0.46432   0.04590   0.02674
C          C       0.75366   0.55257   0.00343   0.42240
C          C       0.80657   0.59598   0.08462   0.43026
C          C       0.67179   0.67522   0.04283   0.21946
C          C       0.55560   0.64673   0.02954  -0.19640
C          C       0.71481   0.77077   0.05521  -0.19057
C          C       0.48749   0.71613   0.02771   0.09650
C          C       0.63949   0.83488   0.05326   0.10893
C          C       0.17020   0.67213   0.62665   0.55167
C          C       0.19659   0.71083   0.67340  -0.02664
C          C       0.14013   0.65935   0.71027  -0.09393
C          C       0.27674   0.79706   0.68156  -0.10191
C          C       0.16411   0.69234   0.75412  -0.13753
C          C       0.29965   0.83083   0.72553  -0.14356
C          C       0.24408   0.77907   0.76288   0.06953
C          C       0.26965   0.81213   0.80987   0.07383
C          C       0.19219   0.77625   0.84527  -0.14155
C          C       0.37248   0.87816   0.82132  -0.13152
C          C       0.21932   0.80187   0.88979  -0.10216
C          C       0.39823   0.90638   0.86589  -0.09703
C          C       0.32255   0.86679   0.90083  -0.05062
C          C       0.34967   0.88992   0.94926   0.55583
C          C       0.33559   0.49521   0.54452   0.09531
C          C       0.16978   0.37841   0.55892   0.10437
C          C       0.40615   0.42739   0.54590  -0.19433
C          C       0.23336   0.30583   0.56023  -0.19711
C          C       0.35326   0.33121   0.55300   0.22699
C          C       0.41701   0.19732   0.59026   0.44144
C          C       0.48341   0.24900   0.51122   0.43512
C          C       0.54996   0.17128   0.50989  -0.06426
C          C       0.48111   0.11803   0.58645  -0.05995
C          C       0.54748   0.10874   0.54730   0.02946
C          C       0.61582   0.16079   0.47182  -0.04568
C          C       0.48020   0.05548   0.62271  -0.06903
C          C       0.67990   0.08739   0.46992  -0.06507
C          C       0.54830   0.98498   0.62152  -0.06776
C          C       0.68038   0.02569   0.50640  -0.07701
C          C       0.61638   0.97595   0.58378  -0.06340
C          C       0.61534   0.03616   0.54584   0.02831
C          C       0.74744   0.94827   0.50355   0.42535
C          C       0.69218   0.90453   0.58455   0.43722
C          C       0.82838   0.82550   0.54302   0.22606
C          C       0.94480   0.85368   0.52979  -0.19675
C          C       0.78508   0.73000   0.55535  -0.19139
C          C       0.01277   0.78415   0.52802   0.09752
C          C       0.86015   0.66566   0.55333   0.11176
N          N       0.71999   0.97010   0.94945  -0.23248
N          N       0.92256   0.75719   0.94851  -0.21296
N          N       0.25422   0.39418   0.95643  -0.19797
N          N       0.47147   0.19135   0.96082  -0.23125
N          N       0.78067   0.52908   0.44961  -0.23256
N          N       0.57884   0.74249   0.44842  -0.21424
N          N       0.24558   0.10498   0.45632  -0.21322
N          N       0.02860   0.30833   0.46060  -0.23417
N          N       0.28000   0.02989   0.05056  -0.23253
N          N       0.07743   0.24280   0.05149  -0.21315
N          N       0.74577   0.60581   0.04357  -0.19799
N          N       0.52853   0.80865   0.03918  -0.23116
N          N       0.21933   0.47091   0.55039  -0.23225
N          N       0.42115   0.25750   0.55158  -0.21439
N          N       0.75441   0.89502   0.54368  -0.21350
N          N       0.97139   0.69166   0.53940  -0.23416
O          O       0.72571   0.21444   0.90679  -0.58126
O          O       0.58971   0.09526   0.87767  -0.56442
O          O       0.93565   0.45569   0.54017  -0.60056
O          O       0.78200   0.34232   0.52051  -0.56070
O          O       0.98228   0.80442   0.02063  -0.42551
O          O       0.86853   0.71353   0.87534  -0.39755
O          O       0.20593   0.35648   0.88192  -0.39238
O          O       0.29236   0.42862   0.03186  -0.43333
O          O       0.77506   0.28437   0.40704  -0.58276
O          O       0.90810   0.40482   0.37750  -0.56659
O          O       0.56220   0.04423   0.04018  -0.59930
O          O       0.71517   0.15799   0.02045  -0.56102
O          O       0.51990   0.69601   0.52064  -0.42575
O          O       0.63423   0.78641   0.37541  -0.39791
O          O       0.29673   0.14348   0.38210  -0.39200
O          O       0.20517   0.07050   0.53157  -0.43232
O          O       0.27429   0.78555   0.09321  -0.58120
O          O       0.41027   0.90473   0.12233  -0.56477
O          O       0.06434   0.54430   0.45983  -0.59993
O          O       0.21799   0.65767   0.47949  -0.56111
O          O       0.01771   0.19557   0.97937  -0.42556
O          O       0.13147   0.28646   0.12466  -0.39756
O          O       0.79406   0.64352   0.11808  -0.39216
O          O       0.70763   0.57137   0.96814  -0.43344
O          O       0.22492   0.71562   0.59296  -0.58347
O          O       0.09189   0.59517   0.62250  -0.56620
O          O       0.43779   0.95576   0.95982  -0.59957
O          O       0.28482   0.84200   0.97955  -0.56041
O          O       0.48010   0.30398   0.47937  -0.42629
O          O       0.36576   0.21358   0.62459  -0.39763
O          O       0.70326   0.85652   0.61791  -0.39151
O          O       0.79482   0.92949   0.46843  -0.43286

