data_crystal

_audit_creation_method 'AiiDA-DDEC plugin'

_cell_length_a         4.68572
_cell_length_b        24.55514
_cell_length_c        32.30716

_cell_angle_alpha     89.99497
_cell_angle_beta     89.99369
_cell_angle_gamma     93.35122

_symmetry_space_group_name_Hall 'P 1'
_symmetry_space_group_name_H-M  'P 1'

loop_
_symmetry_equiv_pos_as_xyz
 'x,y,z'

loop_
_atom_site_label
_atom_site_type_symbol
_atom_site_fract_x
_atom_site_fract_y
_atom_site_fract_z
_atom_site_charge
Zn         Zn      0.50595   0.74340   0.92185   0.81577
Zn         Zn      0.50644   0.74922   0.53638   0.89756
Zn         Zn      0.49409   0.75660   0.42187   0.81567
Zn         Zn      0.49340   0.75075   0.03637   0.89781
Zn         Zn      0.49406   0.25661   0.07814   0.81582
Zn         Zn      0.49358   0.25079   0.46362   0.89741
Zn         Zn      0.50592   0.24341   0.57812   0.81558
Zn         Zn      0.50662   0.24926   0.96363   0.89776
H          H       0.53204   0.69516   0.76733   0.09667
H          H       0.70334   0.80672   0.74996   0.11426
H          H       0.92095   0.79747   0.82100   0.11794
H          H       0.19618   0.70054   0.65477   0.12355
H          H       0.00141   0.70301   0.58283   0.10398
H          H       0.37601   0.80611   0.61780   0.09263
H          H       0.52584   0.80302   0.69156   0.11761
H          H       0.70794   0.39568   0.98569   0.08303
H          H       0.28597   0.50992   0.89057   0.11805
H          H       0.45114   0.41807   0.90974   0.11624
H          H       0.45938   0.54295   0.96464   0.11705
H          H       0.30739   0.63952   0.96005   0.08603
H          H       0.97568   0.68326   0.88108   0.10376
H          H       0.15493   0.58983   0.88234   0.12165
H          H       0.97341   0.10663   0.91286   0.09306
H          H       0.48850   0.95040   0.95876   0.11207
H          H       0.70179   0.04352   0.97245   0.11000
H          H       0.63872   0.94686   0.88247   0.12924
H          H       0.41628   0.85014   0.87927   0.09304
H          H       0.03933   0.79513   0.95795   0.10185
H          H       0.27527   0.88407   0.96351   0.12831
H          H       0.18962   0.71814   0.98323   0.36400
H          H       0.46788   0.80482   0.26733   0.09684
H          H       0.29649   0.69326   0.24997   0.11398
H          H       0.07901   0.70252   0.32100   0.11757
H          H       0.80384   0.79946   0.15480   0.12376
H          H      -0.00139   0.79700   0.08285   0.10406
H          H       0.62406   0.69391   0.11780   0.09242
H          H       0.47420   0.69697   0.19157   0.11754
H          H       0.29310   0.10435   0.48557   0.08301
H          H       0.71440   0.99004   0.39061   0.11761
H          H       0.54941   0.08195   0.40972   0.11662
H          H       0.54072   0.95703   0.46465   0.11776
H          H       0.69242   0.86043   0.46010   0.08616
H          H       0.02426   0.81677   0.38110   0.10352
H          H       0.84529   0.91023   0.38236   0.12152
H          H       0.02611   0.39341   0.41284   0.09213
H          H       0.51143   0.54966   0.45877   0.11179
H          H       0.29777   0.45658   0.47244   0.10989
H          H       0.36130   0.55317   0.38247   0.12892
H          H       0.58400   0.64988   0.37928   0.09348
H          H       0.96094   0.70492   0.45795   0.10254
H          H       0.72487   0.61600   0.46353   0.12829
H          H       0.81022   0.78184   0.48324   0.36417
H          H       0.46797   0.30484   0.23267   0.09700
H          H       0.29667   0.19329   0.25003   0.11399
H          H       0.07906   0.20254   0.17900   0.11775
H          H       0.80384   0.29947   0.34522   0.12379
H          H      -0.00140   0.29700   0.41716   0.10396
H          H       0.62400   0.19389   0.38219   0.09242
H          H       0.47418   0.19699   0.30844   0.11760
H          H       0.29208   0.60433   0.01430   0.08347
H          H       0.71404   0.49009   0.10942   0.11763
H          H       0.54887   0.58194   0.09026   0.11634
H          H       0.54064   0.45705   0.03536   0.11768
H          H       0.69262   0.36049   0.03995   0.08611
H          H       0.02433   0.31675   0.11891   0.10339
H          H       0.84509   0.41018   0.11766   0.12136
H          H       0.02660   0.89338   0.08714   0.09264
H          H       0.51151   0.04961   0.04124   0.11237
H          H       0.29823   0.95649   0.02755   0.10995
H          H       0.36130   0.05315   0.11753   0.12889
H          H       0.58373   0.14987   0.12073   0.09327
H          H       0.96069   0.20488   0.04205   0.10238
H          H       0.72475   0.11594   0.03649   0.12836
H          H       0.81039   0.28187   0.01677   0.36436
H          H       0.53214   0.19519   0.73267   0.09659
H          H       0.70352   0.30675   0.75002   0.11421
H          H       0.92100   0.29749   0.67899   0.11795
H          H       0.19618   0.20055   0.84519   0.12362
H          H       0.00141   0.20301   0.91715   0.10386
H          H       0.37595   0.30610   0.88220   0.09264
H          H       0.52581   0.30304   0.80843   0.11792
H          H       0.70693   0.89566   0.51443   0.08271
H          H       0.28562   0.00997   0.60939   0.11764
H          H       0.45061   0.91805   0.59027   0.11623
H          H       0.45930   0.04298   0.53534   0.11756
H          H       0.30759   0.13958   0.53989   0.08625
H          H       0.97576   0.18324   0.61890   0.10364
H          H       0.15472   0.08977   0.61764   0.12137
H          H       0.97390   0.60660   0.58716   0.09236
H          H       0.48858   0.45035   0.54122   0.11167
H          H       0.70224   0.54343   0.52756   0.11009
H          H       0.63871   0.44684   0.61752   0.12904
H          H       0.41601   0.35013   0.62072   0.09322
H          H       0.03908   0.29509   0.54205   0.10243
H          H       0.27514   0.38401   0.53647   0.12858
H          H       0.18979   0.21817   0.51676   0.36364
C          C       0.38874   0.74057   0.83937   0.54351
C          C       0.24397   0.74702   0.79894  -0.08516
C          C       0.35870   0.72227   0.76370   0.06966
C          C       0.00303   0.75330   0.72155   0.19068
C          C       0.87500   0.77975   0.75508  -0.17687
C          C       0.00218   0.77665   0.79424  -0.03827
C          C       0.88743   0.75450   0.67912   0.05933
C          C       0.02287   0.72623   0.64726  -0.14715
C          C       0.90611   0.72596   0.60752   0.07401
C          C       0.54369   0.78054   0.62779   0.08053
C          C       0.64447   0.78143   0.66859  -0.16673
C          C       0.18274   0.34811   0.96943   0.56844
C          C       0.10753   0.40264   0.95375  -0.09085
C          C       0.85110   0.42251   0.96755   0.07656
C          C       0.92283   0.50346   0.93183   0.16991
C          C       0.16751   0.48492   0.91317  -0.16357
C          C       0.26843   0.43434   0.92493  -0.03239
C          C       0.82399   0.55847   0.92559   0.06100
C          C       0.57458   0.57282   0.94519  -0.17202
C          C       0.48152   0.62570   0.94132   0.07872
C          C       0.86833   0.65078   0.89905   0.10897
C          C       0.97468   0.59893   0.90166  -0.16244
C          C       0.46711   0.13808   0.95568   0.54862
C          C       0.35867   0.08244   0.94208  -0.08652
C          C       0.10071   0.07245   0.92083   0.08280
C          C       0.12355   0.97901   0.92619   0.16831
C          C       0.38241   0.98543   0.94744  -0.16250
C          C       0.50954   0.03744   0.95408  -0.03962
C          C       0.98699   0.92405   0.92098   0.06461
C          C       0.73332   0.91380   0.89896  -0.17197
C          C       0.59887   0.86112   0.89881   0.07647
C          C       0.95598   0.82856   0.94036   0.11333
C          C       0.10375   0.87937   0.94117  -0.16012
C          C       0.61113   0.75939   0.33938   0.54260
C          C       0.75596   0.75297   0.29895  -0.08136
C          C       0.64122   0.77772   0.26371   0.06890
C          C      -0.00306   0.74668   0.22157   0.19080
C          C       0.12491   0.72024   0.25510  -0.17748
C          C      -0.00227   0.72334   0.29425  -0.03922
C          C       0.11261   0.74549   0.17914   0.05910
C          C       0.97717   0.77378   0.14729  -0.14684
C          C       0.09391   0.77406   0.10754   0.07414
C          C       0.45638   0.71948   0.12779   0.08034
C          C       0.35559   0.71856   0.16859  -0.16700
C          C       0.81781   0.15196   0.46938   0.56753
C          C       0.89323   0.09742   0.45369  -0.09072
C          C       0.14965   0.07752   0.46747   0.07683
C          C       0.07758   0.99655   0.43181   0.16983
C          C       0.83285   0.01508   0.41317  -0.16339
C          C       0.73214   0.06568   0.42491  -0.03256
C          C       0.17623   0.94153   0.42561   0.06091
C          C       0.42549   0.92716   0.44522  -0.17184
C          C       0.51834   0.87426   0.44137   0.07854
C          C       0.13160   0.84923   0.39908   0.10825
C          C       0.02542   0.90108   0.40169  -0.16188
C          C       0.53252   0.36198   0.45567   0.54922
C          C       0.64090   0.41763   0.44207  -0.08806
C          C       0.89888   0.42760   0.42082   0.08418
C          C       0.87632   0.52105   0.42619   0.16787
C          C       0.61740   0.51464   0.44743  -0.16125
C          C       0.49003   0.46264   0.45406  -0.03929
C          C       0.01307   0.57599   0.42099   0.06520
C          C       0.26678   0.58623   0.39896  -0.17247
C          C       0.40126   0.63892   0.39881   0.07612
C          C       0.04416   0.67148   0.44036   0.11285
C          C       0.89641   0.62067   0.44119  -0.16047
C          C       0.61127   0.25944   0.16062   0.54329
C          C       0.75604   0.25299   0.20106  -0.08471
C          C       0.64131   0.27774   0.23630   0.06958
C          C      -0.00302   0.24670   0.27845   0.19092
C          C       0.12501   0.22026   0.24492  -0.17735
C          C      -0.00217   0.22336   0.20576  -0.03838
C          C       0.11259   0.24551   0.32088   0.05897
C          C       0.97714   0.27378   0.35274  -0.14698
C          C       0.09390   0.27405   0.39248   0.07461
C          C       0.45633   0.21947   0.37221   0.08042
C          C       0.35555   0.21858   0.33141  -0.16695
C          C       0.81728   0.65190   0.03057   0.56787
C          C       0.89248   0.59737   0.04625  -0.09046
C          C       0.14891   0.57750   0.03245   0.07676
C          C       0.07718   0.49655   0.06817   0.17003
C          C       0.83250   0.51509   0.08683  -0.16381
C          C       0.73159   0.56566   0.07506  -0.03262
C          C       0.17603   0.44154   0.07440   0.06088
C          C       0.42544   0.42719   0.05481  -0.17197
C          C       0.51850   0.37430   0.05868   0.07871
C          C       0.13168   0.34923   0.10095   0.10862
C          C       0.02534   0.40108   0.09833  -0.16209
C          C       0.53290   0.86193   0.04432   0.54926
C          C       0.64134   0.91757   0.05792  -0.08672
C          C       0.89930   0.92756   0.07917   0.08251
C          C       0.87646   0.02100   0.07381   0.16843
C          C       0.61761   0.01458   0.05256  -0.16219
C          C       0.49047   0.96257   0.04592  -0.03947
C          C       0.01303   0.07596   0.07902   0.06448
C          C       0.26669   0.08621   0.10104  -0.17204
C          C       0.40114   0.13889   0.10118   0.07589
C          C       0.04403   0.17145   0.05963   0.11348
C          C       0.89627   0.12063   0.05883  -0.16030
C          C       0.38888   0.24062   0.66062   0.54263
C          C       0.24405   0.24704   0.70105  -0.08133
C          C       0.35879   0.22229   0.73628   0.06876
C          C       0.00308   0.25333   0.77843   0.19094
C          C       0.87510   0.27977   0.74490  -0.17741
C          C       0.00229   0.27667   0.70575  -0.03891
C          C       0.88741   0.25452   0.82086   0.05893
C          C       0.02284   0.22623   0.85271  -0.14682
C          C       0.90610   0.22595   0.89246   0.07373
C          C       0.54364   0.28053   0.87221   0.08021
C          C       0.64442   0.28145   0.83140  -0.16661
C          C       0.18221   0.84805   0.53062   0.56807
C          C       0.10679   0.90259   0.54631  -0.09070
C          C       0.85037   0.92249   0.53252   0.07676
C          C       0.92243   0.00346   0.56818   0.16980
C          C       0.16716   0.98493   0.58682  -0.16318
C          C       0.26788   0.93433   0.57508  -0.03268
C          C       0.82378   0.05848   0.57439   0.06069
C          C       0.57453   0.07285   0.55478  -0.17183
C          C       0.48168   0.12575   0.55862   0.07846
C          C       0.86842   0.15078   0.60092   0.10826
C          C       0.97460   0.09893   0.59831  -0.16192
C          C       0.46749   0.63803   0.54433   0.54856
C          C       0.35911   0.58238   0.55793  -0.08767
C          C       0.10113   0.57241   0.57918   0.08421
C          C       0.12369   0.47896   0.57381   0.16791
C          C       0.38262   0.48537   0.55257  -0.16167
C          C       0.50998   0.53737   0.54593  -0.03893
C          C       0.98695   0.42402   0.57901   0.06507
C          C       0.73324   0.41378   0.60103  -0.17209
C          C       0.59875   0.36109   0.60119   0.07580
C          C       0.95586   0.32853   0.55964   0.11262
C          C       0.10361   0.37934   0.55881  -0.16024
N          N       0.23927   0.72503   0.72587  -0.29590
N          N       0.67754   0.75359   0.59732  -0.23289
N          N       0.76068   0.47161   0.95855  -0.25506
N          N       0.63120   0.66445   0.91896  -0.22080
N          N       0.98588   0.02247   0.91119  -0.27872
N          N       0.71202   0.81892   0.91930  -0.22627
N          N       0.76069   0.77495   0.22588  -0.29570
N          N       0.32247   0.74643   0.09733  -0.23302
N          N       0.23985   0.02840   0.45851  -0.25531
N          N       0.36864   0.83553   0.41900  -0.22069
N          N       0.01382   0.47757   0.41118  -0.27938
N          N       0.28809   0.68111   0.41928  -0.22501
N          N       0.76075   0.27498   0.27413  -0.29563
N          N       0.32247   0.24641   0.40267  -0.23329
N          N       0.23933   0.52840   0.04144  -0.25521
N          N       0.36882   0.33556   0.08104  -0.22100
N          N       0.01413   0.97754   0.08881  -0.27875
N          N       0.28800   0.18109   0.08070  -0.22574
N          N       0.23932   0.22506   0.77411  -0.29633
N          N       0.67754   0.25358   0.90267  -0.23304
N          N       0.76016   0.97161   0.54149  -0.25492
N          N       0.63137   0.16448   0.58100  -0.22013
N          N       0.98619   0.52244   0.58882  -0.27995
N          N       0.71193   0.31890   0.58072  -0.22551
O          O       0.25583   0.75662   0.87247  -0.56929
O          O       0.62556   0.71933   0.83966  -0.52373
O          O       0.04289   0.32817  -0.00032  -0.55173
O          O       0.38538   0.32552   0.95039  -0.55997
O          O       0.30295   0.17784   0.94795  -0.55025
O          O       0.69954   0.14299   0.97475  -0.52312
O          O       0.35763   0.74369   0.97909  -0.84905
O          O       0.74415   0.74335   0.37247  -0.56957
O          O       0.37437   0.78065   0.33966  -0.52372
O          O       0.95678   0.17182   0.49974  -0.55088
O          O       0.61557   0.17456   0.45025  -0.55996
O          O       0.69686   0.32224   0.44796  -0.55084
O          O       0.30024   0.35703   0.47477  -0.52296
O          O       0.64227   0.75629   0.47908  -0.84889
O          O       0.74418   0.24338   0.12753  -0.56923
O          O       0.37445   0.28068   0.16034  -0.52344
O          O       0.95713   0.67184   0.00032  -0.55097
O          O       0.61463   0.67449   0.04960  -0.56014
O          O       0.69707   0.82217   0.05204  -0.55084
O          O       0.30047   0.85701   0.02525  -0.52327
O          O       0.64239   0.25632   0.02091  -0.84951
O          O       0.25586   0.25666   0.62753  -0.56923
O          O       0.62564   0.21936   0.66033  -0.52407
O          O       0.04323   0.82819   0.50026  -0.55139
O          O       0.38444   0.82544   0.54974  -0.56024
O          O       0.30315   0.67777   0.55204  -0.55045
O          O       0.69977   0.64298   0.52523  -0.52241
O          O       0.35775   0.24372   0.52092  -0.84825

