data_crystal

_audit_creation_method 'AiiDA-DDEC plugin'

_cell_length_a        13.04768
_cell_length_b        17.33045
_cell_length_c        22.28753

_cell_angle_alpha     70.96878
_cell_angle_beta     76.55735
_cell_angle_gamma     73.15533

_symmetry_space_group_name_Hall 'P 1'
_symmetry_space_group_name_H-M  'P 1'

loop_
_symmetry_equiv_pos_as_xyz
 'x,y,z'

loop_
_atom_site_label
_atom_site_type_symbol
_atom_site_fract_x
_atom_site_fract_y
_atom_site_fract_z
_atom_site_charge
Cd         Cd      0.17476   0.54674   0.01459   0.88078
Cd         Cd      0.17924   0.73419   0.08937   0.81928
Cd         Cd      0.17526   0.77533   0.24897   0.79968
Cd         Cd      0.18013   0.80462   0.41075   0.83657
Cd         Cd      0.16756   0.00186   0.48461   0.98006
Cd         Cd      0.82523   0.45326   0.98541   0.88085
Cd         Cd      0.82076   0.26581   0.91063   0.81921
Cd         Cd      0.82473   0.22467   0.75103   0.79967
Cd         Cd      0.81986   0.19538   0.58925   0.83647
Cd         Cd      0.83243  -0.00186   0.51539   0.98003
H          H       0.11111   0.54111   0.61876   0.11234
H          H       0.19927   0.77342   0.57051   0.14401
H          H       0.08766   0.76829   0.68018   0.13647
H          H       0.09213   0.74345   0.79668   0.10658
H          H       0.24844   0.48485   0.81362   0.11029
H          H       0.24511   0.50852   0.69694   0.11923
H          H       0.89067   0.56930   0.06000   0.14822
H          H       0.88704   0.77498   0.12506   0.12759
H          H       0.71780   0.70225   0.20390   0.11600
H          H       0.51389   0.74083   0.21779   0.12895
H          H       0.52480   0.72910   0.02725   0.13391
H          H       0.72875   0.69456   0.01109   0.12564
H          H       0.20092   0.50427   0.16932   0.14094
H          H       0.15301   0.56880   0.34419   0.13671
H          H       0.23959   0.42377   0.38251   0.13209
H          H       0.23147   0.27514   0.44251   0.12259
H          H       0.09263   0.25780   0.29276   0.10811
H          H       0.09559   0.40700   0.23266   0.12601
H          H       0.16849   0.04139   0.32883   0.14307
H          H       0.18332   0.98689   0.15394   0.13908
H          H       0.05357   0.13630   0.13998   0.11754
H          H       0.04622   0.28742   0.08091   0.12408
H          H       0.28455   0.28922   0.18404   0.12544
H          H       0.29338   0.13715   0.24417   0.13655
H          H       0.88070   0.80168   0.27696   0.12127
H          H       0.88286   0.82742   0.45986   0.14154
H          H       0.71245   0.92960   0.43172   0.14000
H          H       0.50908   0.95863   0.45274   0.12665
H          H       0.51705   0.77057   0.36441   0.12688
H          H       0.72067   0.74079   0.34251   0.11172
H          H       0.11055   0.01924   0.89508   0.12043
H          H       0.18585   0.75474   0.92955   0.13120
H          H       0.04620   0.01601   0.80351   0.10832
H          H       0.06796   0.02824   0.68626   0.11418
H          H       0.30823   0.79672   0.71012   0.12478
H          H       0.29214   0.78447   0.82709   0.13304
H          H       0.88889   0.45889   0.38123   0.11209
H          H       0.80072   0.22657   0.42948   0.14412
H          H       0.91233   0.23171   0.31982   0.13642
H          H       0.90787   0.25655   0.20332   0.10654
H          H       0.75155   0.51515   0.18638   0.11031
H          H       0.75488   0.49148   0.30306   0.11919
H          H       0.10932   0.43070   0.94000   0.14820
H          H       0.11295   0.22502   0.87494   0.12761
H          H       0.28220   0.29775   0.79610   0.11615
H          H       0.48610   0.25917   0.78221   0.12892
H          H       0.47519   0.27090   0.97275   0.13384
H          H       0.27124   0.30544   0.98891   0.12553
H          H       0.79908   0.49573   0.83067   0.14088
H          H       0.84699   0.43120   0.65581   0.13693
H          H       0.76040   0.57623   0.61749   0.13235
H          H       0.76852   0.72486   0.55749   0.12277
H          H       0.90736   0.74220   0.70724   0.10797
H          H       0.90440   0.59300   0.76734   0.12582
H          H       0.83150   0.95861   0.67117   0.14321
H          H       0.81667   0.01311   0.84606   0.13897
H          H       0.94643   0.86370   0.86002   0.11733
H          H       0.95377   0.71258   0.91909   0.12394
H          H       0.71544   0.71078   0.81596   0.12569
H          H       0.70662   0.86285   0.75582   0.13686
H          H       0.11929   0.19832   0.72304   0.12120
H          H       0.11713   0.17258   0.54014   0.14167
H          H       0.28754   0.07040   0.56828   0.14013
H          H       0.49092   0.04137   0.54726   0.12663
H          H       0.48294   0.22943   0.63559   0.12679
H          H       0.27933   0.25921   0.65749   0.11173
H          H       0.88944   0.98076   0.10492   0.12049
H          H       0.81414   0.24526   0.07045   0.13117
H          H       0.95379   0.98399   0.19649   0.10824
H          H       0.93203   0.97176   0.31374   0.11410
H          H       0.69176   0.20328   0.28987   0.12484
H          H       0.70785   0.21553   0.17291   0.13311
C          C       0.13286   0.59952   0.59037   0.05183
C          C       0.17697   0.71971   0.56612   0.08835
C          C       0.16334   0.63914   0.68271   0.15931
C          C       0.12159   0.70633   0.70975  -0.15690
C          C       0.12462   0.69238   0.77457  -0.07718
C          C       0.16883   0.61254   0.81256  -0.03485
C          C       0.21154   0.54609   0.78437  -0.08037
C          C       0.20915   0.55910   0.71954  -0.18981
C          C       0.17086   0.59878   0.88238   0.55868
C          C       0.91759   0.61581   0.07159   0.10885
C          C       0.91487   0.72119   0.10601   0.08292
C          C       0.73326   0.69749   0.10646   0.15061
C          C       0.67516   0.71001   0.16501  -0.18905
C          C       0.56223   0.73094   0.17291  -0.07681
C          C       0.50835   0.73822   0.12300  -0.02479
C          C       0.56822   0.72407   0.06505  -0.06420
C          C       0.68110   0.70424   0.05621  -0.15618
C          C       0.38593   0.75854   0.13295   0.58020
C          C       0.18734   0.54083   0.20324   0.09834
C          C       0.16332   0.57310   0.29361   0.08478
C          C       0.16791   0.42351   0.30431   0.14867
C          C       0.20546   0.38786   0.36358  -0.18223
C          C       0.20132   0.30507   0.39686  -0.07074
C          C       0.16102   0.25801   0.37102  -0.02656
C          C       0.12325   0.29531   0.31197  -0.08033
C          C       0.12526   0.37827   0.27850  -0.17683
C          C       0.16027   0.16765   0.40532   0.55530
C          C       0.17407   0.00649   0.29491   0.10364
C          C       0.17933   0.97972   0.20452   0.08602
C          C       0.17429   0.12871   0.19501   0.15765
C          C       0.10578   0.16934   0.14848  -0.17425
C          C       0.10205   0.25339   0.11536  -0.07552
C          C       0.16571   0.29662   0.12890  -0.03798
C          C       0.23526   0.25447   0.17488  -0.07321
C          C       0.24012   0.17028   0.20817  -0.16095
C          C       0.15988   0.38763   0.09397   0.54420
C          C       0.90857   0.80151   0.31912   0.08063
C          C       0.91068   0.81605   0.41271   0.11842
C          C       0.72664   0.83383   0.38606   0.15164
C          C       0.66916   0.89467   0.41773  -0.15907
C          C       0.55636   0.91095   0.42889  -0.07032
C          C       0.50169   0.86653   0.40953  -0.02530
C          C       0.56096   0.80532   0.37816  -0.08424
C          C       0.67379   0.78894   0.36601  -0.19362
C          C       0.37959   0.88429   0.42259   0.58959
C          C       0.12855   0.95278   0.91980   0.07762
C          C       0.16849   0.81655   0.93689   0.07752
C          C       0.16776   0.89915   0.82189   0.15607
C          C       0.10425   0.96845   0.78300  -0.19834
C          C       0.11656   0.97553   0.71770  -0.08687
C          C       0.18998   0.91355   0.69145  -0.02311
C          C       0.25244   0.84455   0.73122  -0.07606
C          C       0.24279   0.83745   0.79628  -0.16883
C          C       0.20118   0.92022   0.62126   0.55486
C          C       0.86714   0.40047   0.40963   0.05864
C          C       0.82302   0.28029   0.43388   0.09497
C          C       0.83665   0.36086   0.31728   0.16598
C          C       0.87840   0.29367   0.29025  -0.15685
C          C       0.87537   0.30762   0.22543  -0.07702
C          C       0.83116   0.38746   0.18744  -0.03491
C          C       0.78846   0.45391   0.21563  -0.08031
C          C       0.79085   0.44089   0.28046  -0.18958
C          C       0.82913   0.40122   0.11762   0.55859
C          C       0.08240   0.38419   0.92841   0.10841
C          C       0.08513   0.27881   0.89399   0.08295
C          C       0.26673   0.30251   0.89354   0.15045
C          C       0.32484   0.28999   0.83499  -0.18892
C          C       0.43776   0.26906   0.82709  -0.07661
C          C       0.49165   0.26178   0.87699  -0.02482
C          C       0.43177   0.27593   0.93495  -0.06460
C          C       0.31889   0.29576   0.94379  -0.15595
C          C       0.61406   0.24146   0.86705   0.58015
C          C       0.81265   0.45917   0.79676   0.09802
C          C       0.83668   0.42690   0.70639   0.08464
C          C       0.83208   0.57649   0.69569   0.14868
C          C       0.79453   0.61214   0.63642  -0.18218
C          C       0.79867   0.69493   0.60314  -0.07061
C          C       0.83897   0.74199   0.62898  -0.02652
C          C       0.87674   0.70469   0.68803  -0.08058
C          C       0.87473   0.62173   0.72150  -0.17687
C          C       0.83972   0.83235   0.59468   0.55512
C          C       0.82593   0.99351   0.70509   0.10378
C          C       0.82066   0.02028   0.79547   0.08599
C          C       0.82570   0.87129   0.80498   0.15771
C          C       0.89421   0.83066   0.85152  -0.17444
C          C       0.89794   0.74661   0.88464  -0.07567
C          C       0.83428   0.70338   0.87110  -0.03778
C          C       0.76473   0.74553   0.82511  -0.07316
C          C       0.75987   0.82972   0.79183  -0.16104
C          C       0.84012   0.61237   0.90603   0.54415
C          C       0.09143   0.19849   0.68088   0.08024
C          C       0.08931   0.18395   0.58729   0.11839
C          C       0.27335   0.16617   0.61394   0.15172
C          C       0.33083   0.10532   0.58227  -0.15898
C          C       0.44363   0.08905   0.57111  -0.07013
C          C       0.49831   0.13347   0.59047  -0.02544
C          C       0.43904   0.19468   0.62184  -0.08444
C          C       0.32620   0.21106   0.63399  -0.19366
C          C       0.62040   0.11571   0.57741   0.58968
C          C       0.87144   0.04722   0.08020   0.07751
C          C       0.83150   0.18345   0.06311   0.07725
C          C       0.83224   0.10085   0.17811   0.15609
C          C       0.89575   0.03155   0.21700  -0.19836
C          C       0.88343   0.02447   0.28229  -0.08700
C          C       0.81001   0.08645   0.30854  -0.02312
C          C       0.74755   0.15545   0.26878  -0.07618
C          C       0.75720   0.16254   0.20372  -0.16848
C          C       0.79881   0.07978   0.37874   0.55500
N          N       0.13547   0.63171   0.52792  -0.21757
N          N       0.16390   0.70757   0.51304  -0.17789
N          N       0.15855   0.65209   0.61678   0.01640
N          N       0.01849   0.62125   0.06585  -0.18500
N          N       0.01706   0.68770   0.08739  -0.20204
N          N       0.84931   0.67789   0.09694   0.00086
N          N       0.18451   0.62158   0.18922  -0.17691
N          N       0.16929   0.64157   0.24593  -0.17946
N          N       0.17338   0.50787   0.26899   0.00923
N          N       0.17826   0.90970   0.25128  -0.17104
N          N       0.17492   0.92619   0.30825  -0.18559
N          N       0.17686   0.04270   0.22971  -0.00073
N          N       0.01196   0.79928   0.38395  -0.18953
N          N       0.01063   0.79021   0.32497  -0.20582
N          N       0.84263   0.81732   0.37351   0.00341
N          N       0.12685   0.91982   0.98217  -0.20171
N          N       0.15200   0.83375   0.99242  -0.18078
N          N       0.15495   0.89040   0.88900  -0.00430
N          N       0.86452   0.36829   0.47208  -0.21788
N          N       0.83610   0.29243   0.48696  -0.17753
N          N       0.84144   0.34791   0.38322  -0.00385
N          N       0.98150   0.37875   0.93415  -0.18487
N          N       0.98294   0.31230   0.91261  -0.20175
N          N       0.15068   0.32211   0.90306   0.00111
N          N       0.81549   0.37842   0.81078  -0.17692
N          N       0.83070   0.35843   0.75407  -0.17928
N          N       0.82661   0.49213   0.73101   0.00940
N          N       0.82174   0.09030   0.74871  -0.17126
N          N       0.82507   0.07381   0.69174  -0.18543
N          N       0.82313   0.95730   0.77029  -0.00076
N          N       0.98803   0.20072   0.61605  -0.18926
N          N       0.98936   0.20979   0.67503  -0.20559
N          N       0.15736   0.18268   0.62649   0.00334
N          N       0.87315   0.08018   0.01783  -0.20145
N          N       0.84799   0.16625   0.00758  -0.18061
N          N       0.84504   0.10960   0.11100  -0.00426
Cl         Cl      0.30356   0.61941   0.03014  -0.48435
Cl         Cl      0.04238   0.83535   0.15871  -0.54894
Cl         Cl      0.27847   0.69600   0.34786  -0.49355
Cl         Cl      0.05409   0.91520   0.47024  -0.50980
Cl         Cl      0.69644   0.38059   0.96986  -0.48417
Cl         Cl      0.95761   0.16465   0.84129  -0.54904
Cl         Cl      0.72152   0.30400   0.65213  -0.49346
Cl         Cl      0.94590   0.08480   0.52976  -0.50993
O          O       0.20241   0.52258   0.91609  -0.55230
O          O       0.14135   0.66070   0.90577  -0.57134
O          O       0.34253   0.75788   0.08775  -0.54643
O          O       0.33882   0.77387   0.18588  -0.56653
O          O       0.19161   0.13791   0.46050  -0.55555
O          O       0.13021   0.12529   0.37869  -0.57074
O          O       0.21438   0.42641   0.10988  -0.57356
O          O       0.10260   0.42199   0.04876  -0.55317
O          O       0.33786   0.82725   0.42150  -0.56702
O          O       0.33189   0.95523   0.43282  -0.57625
O          O       0.23672   0.85505   0.60279  -0.56065
O          O       0.17182   0.99565   0.58526  -0.57061
O          O       0.79758   0.47742   0.08391  -0.55228
O          O       0.85864   0.33930   0.09423  -0.57121
O          O       0.65747   0.24212   0.91225  -0.54652
O          O       0.66117   0.22613   0.81412  -0.56646
O          O       0.80838   0.86209   0.53950  -0.55502
O          O       0.86979   0.87471   0.62131  -0.57113
O          O       0.78561   0.57359   0.89012  -0.57322
O          O       0.89739   0.57801   0.95124  -0.55351
O          O       0.66213   0.17275   0.57850  -0.56721
O          O       0.66810   0.04477   0.56718  -0.57619
O          O       0.76327   0.14495   0.39721  -0.56075
O          O       0.82818   0.00435   0.41474  -0.57071

