data_crystal

_audit_creation_method 'AiiDA-DDEC plugin'

_cell_length_a         9.38262
_cell_length_b        16.28871
_cell_length_c        26.03796

_cell_angle_alpha     90.00357
_cell_angle_beta     90.00894
_cell_angle_gamma     90.03976

_symmetry_space_group_name_Hall 'P 1'
_symmetry_space_group_name_H-M  'P 1'

loop_
_symmetry_equiv_pos_as_xyz
 'x,y,z'

loop_
_atom_site_label
_atom_site_type_symbol
_atom_site_fract_x
_atom_site_fract_y
_atom_site_fract_z
_atom_site_charge
Cd         Cd      0.02563   0.58584   0.88789   1.14184
Cd         Cd      0.48661   0.02204   0.01824   0.91861
Cd         Cd      0.47621   0.13782   0.75688   0.90391
Cd         Cd      0.47435   0.08463   0.88701   1.13399
Cd         Cd      0.01379   0.52206   0.01844   0.91782
Cd         Cd      0.02336   0.63756   0.75713   0.90519
Cd         Cd      0.97446   0.41431   0.38761   1.14067
Cd         Cd      0.51352   0.97790   0.51818   0.91876
Cd         Cd      0.52349   0.86204   0.25696   0.90443
Cd         Cd      0.52522   0.91533   0.38706   1.13473
Cd         Cd      0.98848   0.47746   0.51855   0.92027
Cd         Cd      0.97628   0.36229   0.25711   0.90499
H          H       0.39090   0.38599   0.88951   0.09580
H          H       0.50738   0.47679   0.98396   0.09929
H          H       0.51910   0.50945   0.91915   0.10692
H          H       0.66549   0.38827   0.89743   0.08766
H          H       0.74768   0.29028   0.96431   0.09455
H          H       0.64901   0.34279   0.01183   0.09889
H          H       0.52821   0.25253   0.91818   0.08846
H          H       0.29016   0.28490   0.95150   0.09929
H          H       0.36611   0.34063   0.00327   0.08142
H          H       0.64871   0.77385   0.87746   0.08616
H          H       0.51319   0.69230   0.78312   0.09966
H          H       0.50722   0.65387   0.84683   0.10493
H          H       0.37404   0.77702   0.87543   0.08940
H          H       0.29488   0.88385   0.81415   0.10118
H          H       0.37848   0.83089   0.76276   0.09889
H          H       0.52544   0.90816   0.85610   0.09197
H          H       0.75361   0.87256   0.81320   0.09481
H          H       0.66055   0.82276   0.76341   0.09341
H          H       0.53969   0.00921   0.65771   0.10953
H          H       0.38991   0.06740   0.63537   0.10207
H          H       0.39566   0.21792   0.64373   0.10103
H          H       0.54898   0.26584   0.67159   0.09908
H          H       0.74292   0.07475   0.69365   0.10715
H          H       0.74893   0.18367   0.70056   0.10179
H          H       0.78339   0.22607   0.56402   0.09372
H          H       0.76914   0.26960   0.62646   0.09487
H          H       0.77721   0.07730   0.55453   0.09713
H          H       0.76277   0.01424   0.61073   0.09572
H          H       0.41271   0.15577   0.56011   0.09716
H          H       0.57864   0.15901   0.52610   0.10775
H          H       0.10978   0.88452   0.88978   0.09669
H          H       0.99544   0.97695   0.98393   0.09965
H          H       0.98541   0.00943   0.91903   0.10664
H          H       0.83588   0.88949   0.89724   0.08749
H          H       0.75044   0.79229   0.96404   0.09453
H          H       0.84955   0.84435   0.01173   0.09852
H          H       0.96954   0.75272   0.91849   0.08988
H          H       0.20786   0.78335   0.95202   0.09958
H          H       0.13325   0.83992   0.00368   0.08139
H          H       0.85028   0.27407   0.87738   0.08668
H          H       0.98641   0.19264   0.78317   0.09967
H          H       0.99152   0.15395   0.84685   0.10450
H          H       0.12397   0.27759   0.87583   0.08903
H          H       0.20499   0.38381   0.81428   0.10078
H          H       0.12139   0.33073   0.76294   0.09886
H          H       0.97413   0.40723   0.85650   0.09183
H          H       0.74609   0.37262   0.81305   0.09449
H          H       0.83914   0.32280   0.76332   0.09369
H          H       0.96002   0.50920   0.65753   0.10906
H          H       0.10957   0.56761   0.63516   0.10214
H          H       0.10412   0.71791   0.64367   0.10122
H          H       0.95080   0.76581   0.67143   0.09888
H          H       0.75663   0.57454   0.69339   0.10555
H          H       0.75074   0.68344   0.70046   0.10114
H          H       0.71632   0.72599   0.56387   0.09353
H          H       0.73081   0.76959   0.62625   0.09437
H          H       0.72218   0.57724   0.55434   0.09710
H          H       0.73643   0.51422   0.61052   0.09506
H          H       0.08691   0.65568   0.55995   0.09809
H          H       0.92110   0.65896   0.52590   0.10776
H          H       0.46040   0.99080   0.15774   0.10961
H          H       0.61017   0.93258   0.13541   0.10210
H          H       0.60443   0.78209   0.14378   0.10100
H          H       0.45112   0.73417   0.17163   0.09868
H          H       0.25718   0.92525   0.19368   0.10713
H          H       0.25120   0.81632   0.20058   0.10150
H          H       0.21665   0.77397   0.06404   0.09360
H          H       0.23089   0.73038   0.12646   0.09463
H          H       0.22278   0.92270   0.05456   0.09715
H          H       0.23730   0.98576   0.11076   0.09561
H          H       0.58731   0.84423   0.06015   0.09788
H          H       0.42134   0.84099   0.02613   0.10791
H          H       0.60942   0.61391   0.38953   0.09479
H          H       0.49294   0.52320   0.48397   0.09939
H          H       0.48099   0.49056   0.41916   0.10621
H          H       0.33396   0.61137   0.39748   0.08699
H          H       0.25260   0.70974   0.46418   0.09482
H          H       0.35144   0.65741   0.51177   0.09905
H          H       0.47211   0.74730   0.41801   0.08840
H          H       0.71012   0.71507   0.45146   0.09988
H          H       0.63403   0.65941   0.50329   0.08184
H          H       0.35097   0.22630   0.37745   0.08601
H          H       0.48710   0.30766   0.28320   0.09986
H          H       0.49284   0.34616   0.34690   0.10478
H          H       0.62556   0.22277   0.37560   0.08913
H          H       0.70490   0.11611   0.31419   0.10098
H          H       0.62135   0.16924   0.26285   0.09852
H          H       0.47431   0.09213   0.35620   0.09172
H          H       0.24619   0.12763   0.31321   0.09425
H          H       0.33938   0.17736   0.26343   0.09366
H          H       0.04002   0.49078   0.15754   0.10945
H          H       0.89047   0.43239   0.13512   0.10212
H          H       0.89592   0.28204   0.14361   0.10107
H          H       0.04923   0.23415   0.17141   0.09913
H          H       0.24339   0.42544   0.19339   0.10614
H          H       0.24931   0.31654   0.20048   0.10153
H          H       0.28369   0.27400   0.06386   0.09406
H          H       0.26925   0.23037   0.12624   0.09456
H          H       0.27791   0.42267   0.05437   0.09678
H          H       0.26364   0.48574   0.11055   0.09500
H          H       0.91307   0.34430   0.05994   0.09811
H          H       0.07882   0.34097   0.02589   0.10907
H          H       0.89024   0.11544   0.38978   0.09683
H          H       0.00432   0.02302   0.48394   0.09928
H          H       0.01461   0.99062   0.41904   0.10704
H          H       0.16407   0.11052   0.39735   0.08764
H          H       0.24965   0.20773   0.46410   0.09545
H          H       0.15030   0.15585   0.51184   0.09809
H          H       0.03052   0.24700   0.41841   0.09024
H          H       0.79215   0.21669   0.45198   0.09975
H          H       0.86690   0.16015   0.50366   0.08096
H          H       0.14958   0.72585   0.37740   0.08661
H          H       0.01384   0.80733   0.28316   0.09974
H          H       0.00847   0.84597   0.34685   0.10458
H          H       0.87594   0.72236   0.37575   0.08860
H          H       0.79506   0.61610   0.31423   0.10061
H          H       0.87857   0.66917   0.26287   0.09880
H          H       0.02587   0.59249   0.35640   0.09189
H          H       0.25394   0.62736   0.31308   0.09450
H          H       0.16100   0.67729   0.26336   0.09398
C          C       0.25053   0.45491   0.93749   0.61193
C          C       0.38416   0.40213   0.93048  -0.09906
C          C       0.51573   0.45505   0.94408  -0.17945
C          C       0.65420   0.40486   0.93814  -0.09928
C          C       0.65046   0.32646   0.97096  -0.18905
C          C       0.51987   0.27401   0.95801  -0.10482
C          C       0.38078   0.32358   0.96287  -0.18425
C          C       0.78172   0.45857   0.95199   0.61738
C          C       0.50940   0.19881   0.99279   0.60777
C          C       0.78011   0.70410   0.82739   0.61737
C          C       0.65021   0.75862   0.83630  -0.10291
C          C       0.51239   0.71035   0.82379  -0.17925
C          C       0.37969   0.76387   0.83407  -0.09734
C          C       0.24425   0.71727   0.82040   0.61874
C          C       0.38604   0.84476   0.80394  -0.18565
C          C       0.52578   0.89088   0.81532  -0.11260
C          C       0.65619   0.83778   0.80445  -0.18585
C          C       0.52503   0.96974   0.78479   0.61106
C          C       0.50640   0.06631   0.63892  -0.01403
C          C       0.51231   0.21553   0.64680  -0.00575
C          C       0.71441   0.13331   0.67560  -0.01665
C          C       0.73355   0.21900   0.60177   0.00919
C          C       0.73142   0.07265   0.59305  -0.01358
C          C       0.52915   0.15483   0.56408  -0.01090
C          C       0.25092   0.95314   0.93747   0.61356
C          C       0.11670   0.90097   0.93069  -0.10193
C          C       0.98666   0.95513   0.94407  -0.17980
C          C       0.84706   0.90605   0.93796  -0.09777
C          C       0.84846   0.82771   0.97091  -0.18900
C          C       0.97787   0.77422   0.95833  -0.10613
C          C       0.11819   0.82274   0.96331  -0.18312
C          C       0.71984   0.96029   0.95128   0.61349
C          C       0.98695   0.69902   0.99305   0.60915
C          C       0.71934   0.20415   0.82733   0.61739
C          C       0.84908   0.25872   0.83624  -0.10206
C          C       0.98683   0.21051   0.82389  -0.17786
C          C       0.11950   0.26406   0.83450  -0.09672
C          C       0.25445   0.21668   0.82166   0.61787
C          C       0.11379   0.34462   0.80413  -0.18443
C          C       0.97412   0.39067   0.81561  -0.11291
C          C       0.84345   0.33783   0.80436  -0.18713
C          C       0.97628   0.46989   0.78553   0.61074
C          C       0.99312   0.56637   0.63878  -0.01332
C          C       0.98746   0.71549   0.64668  -0.00586
C          C       0.78529   0.63320   0.67545  -0.01444
C          C       0.76627   0.71895   0.60160   0.00909
C          C       0.76803   0.57263   0.59286  -0.01364
C          C       0.97049   0.65476   0.56392  -0.01057
C          C       0.49368   0.93369   0.13897  -0.01312
C          C       0.48778   0.78447   0.14684  -0.00558
C          C       0.28568   0.86669   0.17563  -0.01743
C          C       0.26650   0.78099   0.10179   0.00970
C          C       0.26862   0.92734   0.09308  -0.01300
C          C       0.47088   0.84516   0.06412  -0.01170
C          C       0.74966   0.54436   0.43713   0.61160
C          C       0.61630   0.59770   0.43049  -0.09769
C          C       0.48462   0.54494   0.44410  -0.17994
C          C       0.34609   0.59505   0.43821  -0.09752
C          C       0.34986   0.67359   0.47088  -0.19057
C          C       0.48047   0.72592   0.45787  -0.10328
C          C       0.61964   0.67631   0.46286  -0.18559
C          C       0.21910   0.54131   0.45245   0.61613
C          C       0.49078   0.80119   0.49262   0.60639
C          C       0.22022   0.29610   0.32736   0.61647
C          C       0.34977   0.24149   0.33629  -0.10313
C          C       0.48773   0.28966   0.32388  -0.17907
C          C       0.62027   0.23603   0.33423  -0.09629
C          C       0.75576   0.28252   0.32057   0.61881
C          C       0.61373   0.15522   0.30401  -0.18515
C          C       0.47386   0.10921   0.31540  -0.11221
C          C       0.34363   0.16238   0.30447  -0.18608
C          C       0.47394   0.03030   0.28492   0.61170
C          C       0.00693   0.43361   0.13878  -0.01304
C          C       0.01257   0.28447   0.14666  -0.00697
C          C       0.21473   0.36677   0.17546  -0.01502
C          C       0.23377   0.28101   0.10159   0.00860
C          C       0.23207   0.42731   0.09289  -0.01350
C          C       0.02950   0.34515   0.06391  -0.01179
C          C       0.74911   0.04692   0.43755   0.61464
C          C       0.88336   0.09912   0.43071  -0.10250
C          C       0.01327   0.04491   0.44411  -0.18004
C          C       0.15280   0.09405   0.43808  -0.09763
C          C       0.15149   0.17249   0.47102  -0.18993
C          C       0.02219   0.22606   0.45838  -0.10347
C          C       0.88192   0.17742   0.46332  -0.18307
C          C       0.27997   0.03974   0.45137   0.61400
C          C       0.01300   0.30211   0.49268   0.60416
C          C       0.28049   0.79574   0.32733   0.61672
C          C       0.15083   0.74117   0.33627  -0.10311
C          C       0.01319   0.78943   0.32387  -0.17752
C          C       0.88049   0.73589   0.33443  -0.09584
C          C       0.74562   0.78346   0.32165   0.61669
C          C       0.88619   0.65530   0.30406  -0.18461
C          C       0.02590   0.60924   0.31553  -0.11302
C          C       0.15654   0.66211   0.30436  -0.18674
C          C       0.02377   0.53009   0.28542   0.61255
N          N       0.55326   0.13616   0.67209  -0.18668
N          N       0.57688   0.22293   0.59619  -0.19984
N          N       0.77900   0.14063   0.62505  -0.19273
N          N       0.57105   0.07234   0.58676  -0.18599
N          N       0.94638   0.63613   0.67199  -0.18746
N          N       0.92296   0.72289   0.59603  -0.20075
N          N       0.72069   0.64059   0.62489  -0.19290
N          N       0.92839   0.57232   0.58661  -0.18639
N          N       0.44683   0.86384   0.17213  -0.18632
N          N       0.42318   0.77706   0.09623  -0.20004
N          N       0.22107   0.85937   0.12508  -0.19259
N          N       0.42899   0.92765   0.08680  -0.18649
N          N       0.05363   0.36384   0.17199  -0.18747
N          N       0.07707   0.27708   0.09602  -0.19952
N          N       0.27936   0.35937   0.12491  -0.19242
N          N       0.07172   0.42762   0.08662  -0.18586
O          O       0.22427   0.50784   0.90333  -0.57322
O          O       0.45601   0.13250   0.97078  -0.61555
O          O       0.85708   0.48766   0.91612  -0.60288
O          O       0.82650   0.66220   0.86482  -0.59742
O          O       0.44852   0.02891   0.80525  -0.61454
O          O       0.16293   0.69550   0.85664  -0.60361
O          O       0.17829   0.44266   0.97875  -0.59935
O          O       0.80249   0.47044   0.00042  -0.57574
O          O       0.82962   0.70424   0.78135  -0.58435
O          O       0.22207   0.70464   0.77211  -0.57057
O          O       0.58583   0.97855   0.74242  -0.55531
O          O       0.54287   0.19951   0.03896  -0.54172
O          O       0.27842   0.00456   0.90258  -0.57003
O          O       0.04358   0.63320   0.97138  -0.61782
O          O       0.64407   0.98745   0.91488  -0.59822
O          O       0.67289   0.16223   0.86474  -0.59626
O          O       0.04953   0.52943   0.80713  -0.61384
O          O       0.33057   0.19187   0.85858  -0.59779
O          O       0.32199   0.94208   0.97911  -0.60006
O          O       0.69969   0.97393  -0.00036  -0.57425
O          O       0.66975   0.20442   0.78131  -0.58529
O          O       0.28001   0.20632   0.77339  -0.57212
O          O       0.92047   0.47843   0.74231  -0.55522
O          O       0.95017   0.69924   0.03893  -0.54136
O          O       0.77661   0.49334   0.40183  -0.57192
O          O       0.54400   0.86752   0.47060  -0.61461
O          O       0.14270   0.51243   0.41677  -0.60369
O          O       0.17475   0.33823   0.36481  -0.59655
O          O       0.54961   0.97087   0.30551  -0.61454
O          O       0.83716   0.30444   0.35675  -0.60398
O          O       0.82075   0.55426   0.47889  -0.60062
O          O       0.19968   0.52935   0.50098  -0.57432
O          O       0.17023   0.29578   0.28137  -0.58439
O          O       0.77789   0.29505   0.27228  -0.57063
O          O       0.41377   0.02173   0.24239  -0.55627
O          O       0.45725   0.80055   0.53878  -0.54097
O          O       0.72150   0.99544   0.40276  -0.57027
O          O       0.95504   0.36710   0.47065  -0.61555
O          O       0.35548   0.01249   0.41492  -0.59882
O          O       0.32689   0.83772   0.36469  -0.59549
O          O       0.95066   0.47052   0.30700  -0.61355
O          O       0.66951   0.80812   0.35859  -0.59798
O          O       0.67814   0.05801   0.47921  -0.60166
O          O       0.30035   0.02604   0.49970  -0.57468
O          O       0.33001   0.79540   0.28128  -0.58501
O          O       0.72026   0.79437   0.27340  -0.57112
O          O       0.07958   0.52156   0.24217  -0.55679
O          O       0.05052   0.30393   0.53843  -0.53869

