data_crystal

_audit_creation_method 'AiiDA-DDEC plugin'

_cell_length_a        12.12271
_cell_length_b        14.02817
_cell_length_c        17.89037

_cell_angle_alpha     90.01686
_cell_angle_beta     89.90425
_cell_angle_gamma     97.72712

_symmetry_space_group_name_Hall 'P 1'
_symmetry_space_group_name_H-M  'P 1'

loop_
_symmetry_equiv_pos_as_xyz
 'x,y,z'

loop_
_atom_site_label
_atom_site_type_symbol
_atom_site_fract_x
_atom_site_fract_y
_atom_site_fract_z
_atom_site_charge
Co         Co     -0.00136   0.00006   0.00046   0.88803
Co         Co      0.49821   0.49966   0.50002   0.83954
Co         Co      0.00095   0.50001   0.50053   0.85897
Co         Co      0.49958  -0.00022  -0.00028   0.86553
H          H       0.38746   0.93057   0.26365   0.11715
H          H       0.73791   0.41994   0.94939   0.11003
H          H       0.97534   0.46571   0.33878   0.11391
H          H       0.61270   0.06932   0.73678   0.11737
H          H       0.83540   0.64368   0.48861   0.11500
H          H       0.34056   0.98311   0.44026   0.11440
H          H       0.59347   0.39108   0.76149   0.12255
H          H       0.90535   0.04907   0.26802   0.11314
H          H       0.65880   0.51798   0.94153   0.11677
H          H       0.34890   0.04638   0.74338   0.11937
H          H       0.82644   0.36839   0.05670   0.10084
H          H       0.86735   0.04962   0.67825   0.11882
H          H       0.82745   0.86633   0.44068   0.10386
H          H       0.75682   0.72846   0.38828   0.12409
H          H       0.74406   0.32154   0.19952   0.10704
H          H       0.51373   0.20258   0.36255   0.10389
H          H       0.26220   0.74916   0.59389   0.11232
H          H       0.20857   0.32751   0.81864   0.11521
H          H       0.26164   0.08079   0.45024   0.11502
H          H       0.12788   0.62132   0.14180   0.11672
H          H       0.97592   0.96569   0.15982   0.11238
H          H       0.79190   0.17227   0.31810   0.10899
H          H       0.26255   0.24886   0.90650   0.11314
H          H       0.61401   0.12051   0.45752   0.10644
H          H       0.95671   0.25695   0.91957   0.12433
H          H       0.55746   0.03215   0.15745   0.09930
H          H       0.57659   0.71914   0.82039   0.12758
H          H       0.59389   0.89135   0.73748   0.12375
H          H       0.25604   0.67867   0.80068   0.10798
H          H       0.25623   0.17828   0.69989   0.10440
H          H       0.65146   0.95456   0.25664   0.11898
H          H       0.13270   0.44997   0.17550   0.11302
H          H       0.24300   0.27149   0.61220   0.12415
H          H       0.02151   0.67503   0.86456   0.10220
H          H       0.61484   0.61926   0.04337   0.10999
H          H       0.42485   0.78072   0.32081   0.12769
H          H       0.83602   0.14392   0.01068   0.11493
H          H       0.17300   0.13287   0.55852   0.10440
H          H       0.34821   0.65952   0.49826   0.11259
H          H       0.38434   0.38057   0.95668   0.10973
H          H       0.26171   0.57982   0.05110   0.10956
H          H       0.12656   0.12132   0.35611   0.12017
H          H       0.04107   0.24254   0.41737   0.12668
H          H       0.09489   0.44989   0.76847   0.11976
H          H       0.38661   0.88027   0.54216   0.10636
H          H       0.42381   0.28087   0.17995   0.12699
H          H       0.55748   0.53194   0.34265   0.10032
H          H       0.13343   0.95042   0.32185   0.11741
H          H       0.86707   0.55033   0.82475   0.11323
H          H       0.65161   0.45362   0.24294   0.12221
H          H       0.97852   0.32509   0.13561   0.10235
H          H       0.16327   0.85625   0.98976   0.11499
H          H       0.65088   0.83962   0.99791   0.11497
H          H       0.61290   0.56896   0.76243   0.11517
H          H       0.73831   0.25108   0.40627   0.11045
H          H       0.40572   0.60881   0.23826   0.12414
H          H       0.65119   0.34064   0.50187   0.11326
H          H       0.87376   0.87835   0.64385   0.11867
H          H       0.17354   0.63211   0.94276   0.10150
H          H       0.44230   0.96772   0.84230   0.10077
H          H       0.16479   0.35526   0.51116   0.11694
H          H       0.38661   0.43097   0.23763   0.11537
H          H       0.34799   0.16012   0.00232   0.11505
H          H       0.75712   0.22837   0.11125   0.12262
H          H       0.66047   0.01712   0.55987   0.11616
H          H       0.87243   0.37893   0.85812   0.11598
H          H       0.09451   0.95119   0.73250   0.11313
H          H       0.57621   0.22000   0.67867   0.12787
H          H       0.73762   0.75119   0.09317   0.11412
H          H       0.04272   0.74355   0.07941   0.12308
H          H       0.24257   0.77209   0.88915   0.12316
H          H       0.20799   0.82790   0.68225   0.10888
H          H       0.02014   0.17488   0.63674   0.10461
H          H       0.51469   0.70183   0.13806   0.10378
H          H       0.98081   0.82455   0.36262   0.10372
H          H       0.34124   0.48224   0.05940   0.11504
H          H       0.02325   0.03422   0.84052   0.11141
H          H       0.95751   0.75699   0.58108   0.12873
H          H       0.48491   0.29796   0.86195   0.10279
H          H       0.73822   0.91894   0.55032   0.11553
H          H       0.40582   0.10858   0.26249   0.12496
H          H       0.74353   0.82197   0.30010   0.10404
H          H       0.02455   0.53391   0.66096   0.11627
H          H       0.44202   0.46786   0.65726   0.09815
H          H       0.79163   0.67250   0.18137   0.11493
H          H       0.90552   0.54967   0.23106   0.12116
H          H       0.34834   0.54634   0.75716   0.12315
H          H       0.48562   0.79736   0.63751   0.10364
C          C       0.29907   0.68597   0.61023  -0.16117
C          C       0.43268   0.92158   0.58610  -0.12653
C          C       0.82818   0.15071   0.20052   0.13923
C          C       0.44654   0.07191   0.30573  -0.07207
C          C       0.02360   0.60039   0.87991  -0.09265
C          C       0.90798   0.82503   0.99746   0.55165
C          C       0.25309   0.21069   0.75522  -0.10745
C          C       0.02484   0.80937   0.56014  -0.11244
C          C       0.10983   0.57572   0.92346  -0.13874
C          C       0.74723   0.28916   0.25477  -0.11937
C          C       0.48879   0.37572   0.86064  -0.07898
C          C       0.93930   0.93431   0.62571  -0.11853
C          C       0.88835   0.57317   0.28720  -0.17015
C          C       0.06341   0.47014   0.14332  -0.08828
C          C       0.49434   0.42298   0.14247   0.05281
C          C       0.50474   0.57688   0.85728   0.05369
C          C       0.89021   0.92343   0.42106  -0.12481
C          C       0.35008   0.13574   0.94470   0.09675
C          C       0.56835   0.57736   0.08680  -0.11780
C          C       0.07092   0.47370   0.65212   0.08662
C          C       0.93685   0.02971   0.64580  -0.07404
C          C       0.02561   0.90729   0.58108   0.05120
C          C       0.38143   0.67783   0.96167   0.27720
C          C       0.02351   0.10019   0.62191  -0.08745
C          C       0.93864   0.43450   0.87594  -0.12521
C          C       0.11360   0.47849   0.94551   0.02176
C          C       0.09151   0.67472   0.49647   0.55538
C          C       0.43113   0.42219   0.91318  -0.12304
C          C       0.85102   0.62408   0.43130   0.08652
C          C       0.07005   0.97413   0.84881   0.08869
C          C       0.48984   0.87522   0.63887  -0.07832
C          C       0.48800   0.33527   0.58905   0.56431
C          C       0.48264   0.32088   0.14157  -0.07637
C          C       0.80142   0.04900   0.49060   0.01336
C          C       0.17212   0.34911   0.70102   0.14900
C          C       0.92908   0.02580   0.15175   0.09700
C          C       0.39746   0.52794   0.64431   0.08096
C          C       0.92906   0.52599   0.34740   0.10154
C          C       0.89557   0.72034   0.01457  -0.16141
C          C       0.85097   0.12426   0.06805   0.09676
C          C       0.60189   0.47183   0.35571   0.06487
C          C       0.80068   0.55032   0.00883  -0.02825
C          C       0.62735   0.92767   0.46306   0.01660
C          C       0.64992   0.36400   0.44412   0.08606
C          C       0.51799   0.17908   0.64054  -0.08255
C          C       0.37256   0.07208   0.53746   0.00921
C          C       0.48819   0.83545   0.91062   0.55946
C          C       0.88848   0.07293   0.21200  -0.17173
C          C       0.78728   0.20369   0.26250  -0.10527
C          C       0.34644   0.07403   0.80000  -0.17209
C          C       0.97741   0.89915   0.37781  -0.08893
C          C       0.25288   0.71104   0.74545  -0.12181
C          C       0.19950   0.94978   0.50968   0.00981
C          C       0.51008   0.12480   0.36128  -0.07760
C          C       0.53914   0.27102   0.09133  -0.17303
C          C       0.80762   0.67328   0.37365  -0.15973
C          C       0.80287   0.65126   0.98662   0.27683
C          C       0.43754   0.97230   0.30567  -0.11568
C          C       0.80789   0.17333   0.12583  -0.15627
C          C       0.44644   0.57193   0.19492  -0.07073
C          C       0.78707   0.70391   0.23702  -0.11098
C          C       0.10282   0.27947   0.98642  -0.15932
C          C       0.38082   0.17681   0.53960   0.27521
C          C       0.89576   0.22004   0.48528  -0.15701
C          C       0.49421   0.92341   0.35877   0.05189
C          C       0.39820   0.02798   0.85600   0.07028
C          C       0.97531   0.59259   0.07950   0.05154
C          C       0.93654   0.53001   0.85659  -0.08822
C          C       0.70049   0.81427   0.10964  -0.15394
C          C       0.10460   0.77934   0.51465  -0.15490
C          C       0.50656   0.07685   0.64126   0.05114
C          C       0.29788   0.15727   0.81517   0.13495
C          C       0.02497   0.40738   0.92030   0.05100
C          C       0.97584   0.69036   0.05921  -0.12657
C          C       0.29930   0.18547   0.89050  -0.15555
C          C       0.65378   0.42581   0.29954  -0.17245
C          C       0.06409   0.96994   0.35447  -0.07135
C          C       0.02373   0.30945   0.94072  -0.12674
C          C       0.56461   0.47580   0.08778   0.00888
C          C       0.70160   0.84256   0.18497   0.13477
C          C       0.82814   0.65100   0.29889   0.14972
C          C       0.97433   0.18990   0.43886  -0.11601
C          C       0.19508   0.34919   0.01466   0.27842
C          C       0.97627   0.39975   0.12007  -0.09400
C          C       0.29435   0.52161   0.02006  -0.24818
C          C       0.88644   0.52176   0.05435   0.02132
C          C       0.11127   0.92734   0.78854  -0.17161
C          C       0.56783   0.07875   0.41387  -0.12274
C          C       0.70635   0.97769   0.51979  -0.25696
C          C       0.61838   0.82278   0.46101   0.27751
C          C       0.29751   0.65747   0.68548   0.14527
C          C       0.56264   0.52759   0.80475  -0.11638
C          C       0.46085   0.22861   0.59127  -0.17189
C          C       0.48250   0.82128   0.35939  -0.08371
C          C       0.55319   0.42793   0.80504  -0.07142
C          C       0.62784   0.42688   0.03729   0.03197
C          C       0.70214   0.34244   0.31468   0.14097
C          C       0.19172   0.82711   0.87463  -0.15591
C          C       0.17174   0.84961   0.79989   0.13538
C          C       0.14912   0.37533   0.56836   0.09135
C          C       0.19760   0.84893   0.48717   0.27355
C          C       0.19238   0.32676   0.62632  -0.16164
C          C       0.43703   0.47210   0.19532  -0.11231
C          C       0.34928   0.63586   0.55591   0.10544
C          C       0.19907   0.45000   0.99127  -0.02603
C          C       0.06189   0.56564   0.12356  -0.12509
C          C       0.34638   0.57432   0.70061  -0.16999
C          C       0.51084   0.62406   0.13954  -0.07802
C          C       0.46098   0.72852   0.90901  -0.16586
C          C       0.29397   0.02189   0.48060  -0.25444
C          C       0.55306   0.92813   0.69441  -0.07438
C          C       0.14804   0.87589   0.93243   0.08648
C          C       0.21251   0.79642   0.73784  -0.10011
C          C       0.51033   0.66487   0.41047   0.55595
C          C       0.56274   0.02793   0.69446  -0.11410
C          C       0.88572   0.02049   0.44352   0.01378
C          C       0.21279   0.29610   0.76300  -0.11296
C          C       0.53832   0.77144   0.40909  -0.16779
C          C       0.11430   0.97844   0.55579   0.01687
C          C       0.09030   0.17478   0.00302   0.55227
C          C       0.51667   0.67892   0.85806  -0.08884
C          C       0.89021   0.42457   0.07625  -0.13933
C          C       0.10991   0.07579   0.57788  -0.12673
C          C       0.37232   0.57286   0.96314   0.02450
C          C       0.70104   0.31418   0.39000  -0.16156
C          C       0.70568   0.47819   0.98054  -0.24903
C          C       0.60158   0.97187   0.14399   0.06679
C          C       0.43602   0.02316   0.58725   0.01232
C          C       0.43447   0.52392   0.91216   0.01002
C          C       0.65341   0.92611   0.20016  -0.17142
C          C       0.61891   0.32163   0.03849   0.27655
C          C       0.74702   0.78945   0.24483  -0.10894
C          C       0.90928   0.32476   0.50253   0.53942
C          C       0.97396   0.09195   0.41819   0.05591
C          C       0.64945   0.86392   0.05549   0.09601
C          C       0.51044   0.16400   0.08967   0.57608
C          C       0.80478   0.14970   0.51475   0.27651
C          C       0.11182   0.42679   0.71229  -0.16770
C          C       0.06077   0.06536   0.37385  -0.12065
C          C       0.56457   0.97696   0.41296   0.01198
N          N       0.59653   0.44124   0.42801  -0.16901
N          N       0.08527   0.94805   0.92090  -0.19404
N          N       0.40322   0.05851   0.92824  -0.21053
N          N       0.59626   0.94111   0.07183  -0.21002
N          N       0.08612   0.44750   0.57997  -0.19792
N          N       0.91324   0.05183   0.07975  -0.24597
N          N       0.91389   0.55185   0.41969  -0.22198
N          N       0.40163   0.55798   0.57192  -0.26578
O          O       0.55258   0.37983   0.63576  -0.52609
O          O       0.27634   0.82359   0.44875  -0.41109
O          O       0.44792   0.87829   0.96763  -0.50422
O          O       0.72839   0.17293   0.55604  -0.40522
O          O       0.55108   0.62355   0.46793  -0.49312
O          O       0.31875   0.72260   0.00164  -0.41017
O          O       0.02645   0.62117   0.54485  -0.59000
O          O       0.13167   0.13660   0.05726  -0.50532
O          O       0.97589   0.37793   0.45524  -0.47462
O          O       0.97211   0.87919   0.04564  -0.54221
O          O       0.02445   0.12127   0.95543  -0.55188
O          O       0.68026   0.27763   0.99707  -0.40795
O          O       0.72410   0.67789   0.94933  -0.44122
O          O       0.44509   0.37636   0.53240  -0.52626
O          O       0.27207   0.32338   0.05415  -0.44028
O          O       0.68358   0.78052   0.50045  -0.41352
O          O       0.13194   0.63739   0.44132  -0.48184
O          O       0.86738   0.86280   0.94277  -0.49922
O          O       0.55011   0.87845   0.86261  -0.52478
O          O       0.31571   0.21862   0.49982  -0.41483
O          O       0.54921   0.12138   0.03214  -0.54907
O          O       0.44931   0.12144   0.13815  -0.52409
O          O       0.44766   0.62149   0.36227  -0.52259
O          O       0.86710   0.36279   0.55655  -0.48191

