data_crystal

_audit_creation_method 'AiiDA-DDEC plugin'

_cell_length_a        14.10404
_cell_length_b        20.30044
_cell_length_c        20.54853

_cell_angle_alpha     108.71749
_cell_angle_beta     90.04863
_cell_angle_gamma     90.11426

_symmetry_space_group_name_Hall 'P 1'
_symmetry_space_group_name_H-M  'P 1'

loop_
_symmetry_equiv_pos_as_xyz
 'x,y,z'

loop_
_atom_site_label
_atom_site_type_symbol
_atom_site_fract_x
_atom_site_fract_y
_atom_site_fract_z
_atom_site_charge
Ca         Ca      0.45584   0.78196   0.54402   1.50662
Ca         Ca      0.80550   0.70397   0.95282   1.51566
Ca         Ca      0.19450   0.29602   0.04718   1.51560
Ca         Ca      0.30525   0.79466   0.04655   1.51598
Ca         Ca      0.69474   0.20533   0.95345   1.51608
Ca         Ca      0.95615   0.71824   0.45645   1.50867
Ca         Ca      0.54415   0.21803   0.45598   1.50660
Ca         Ca      0.04385   0.28176   0.54355   1.50869
Cd         Cd      0.94166   0.24130   0.02116   0.99977
Cd         Cd      0.69668   0.74294   0.47295   1.00165
Cd         Cd      0.05834   0.75870   0.97884   0.99978
Cd         Cd      0.80363   0.24163   0.47248   0.99908
Cd         Cd      0.55907   0.74108   0.02163   0.99993
Cd         Cd      0.30332   0.25706   0.52705   1.00161
Cd         Cd      0.44093   0.25892   0.97838   0.99990
Cd         Cd      0.19637   0.75837   0.52752   0.99910
H          H       0.92789   0.61765   0.53233   0.09851
H          H       0.47320   0.29486   0.22282   0.12093
H          H       0.64463   0.36908   0.96956   0.10768
H          H       0.66486   0.50201   0.45735   0.12120
H          H       0.35537   0.63091   0.03044   0.10748
H          H       0.19380   0.78655   0.77948   0.12419
H          H       0.30649   0.28608   0.77876   0.12358
H          H       0.21756   0.72408   0.28264   0.11944
H          H       0.70912   0.27173   0.82661   0.10919
H          H       0.17350   0.48537   0.47785   0.12313
H          H       0.00920   0.26592   0.38181   0.10776
H          H       0.68149   0.09378   0.04163   0.10485
H          H       0.43618   0.23273   0.72637   0.12268
H          H       0.76716   0.71942   0.11402   0.10813
H          H       0.26772   0.78004   0.88628   0.10720
H          H       0.93779   0.97736   0.96993   0.12276
H          H       0.49037   0.76542   0.38175   0.10811
H          H       0.81911   0.59402   0.04194   0.10423
H          H       0.95441   0.78638   0.33069   0.10526
H          H       0.50963   0.23458   0.61825   0.10812
H          H       0.31851   0.90621   0.95837   0.10491
H          H       0.60112   0.98492   0.04472   0.12039
H          H       0.83510   0.00103   0.45693   0.12181
H          H       0.42742   0.88235   0.46780   0.09867
H          H       0.33513   0.49798   0.54265   0.12127
H          H       0.54640   0.28594   0.33052   0.10809
H          H       0.20885   0.22842   0.17374   0.10663
H          H       0.06441   0.73338   0.72688   0.12194
H          H       0.29087   0.72826   0.17340   0.10922
H          H       0.43717   0.52358   0.02962   0.12285
H          H       0.56382   0.76727   0.27363   0.12255
H          H       0.71822   0.77557   0.71656   0.11977
H          H       0.59638   0.39197   0.46493   0.11537
H          H       0.56283   0.47641   0.97038   0.12299
H          H       0.79115   0.77158   0.82626   0.10671
H          H       0.32638   0.98508   0.47803   0.12367
H          H       0.99080   0.73408   0.61819   0.10765
H          H       0.69351   0.71392   0.22124   0.12368
H          H       0.52679   0.70513   0.77718   0.12093
H          H       0.06221   0.02264   0.03007   0.12288
H          H       0.45360   0.71406   0.66948   0.10800
H          H       0.28177   0.22442   0.28344   0.11974
H          H       0.73228   0.21996   0.11372   0.10716
H          H       0.89997   0.48568   0.04480   0.12142
H          H       0.09617   0.10859   0.53511   0.11603
H          H       0.14369   0.13034   0.03005   0.10861
H          H       0.57258   0.11765   0.53220   0.09849
H          H       0.02734   0.79423   0.22250   0.12121
H          H       0.78244   0.27592   0.71736   0.11934
H          H       0.82650   0.51462   0.52215   0.12324
H          H       0.67361   0.01492   0.52197   0.12359
H          H       0.23284   0.28058   0.88598   0.10807
H          H       0.16490  -0.00104   0.54308   0.12175
H          H       0.80620   0.21344   0.22052   0.12420
H          H       0.10003   0.51432   0.95520   0.12145
H          H       0.97266   0.20577   0.77750   0.12135
H          H       0.07211   0.38235   0.46767   0.09848
H          H       0.90383   0.89140   0.46489   0.11623
H          H       0.93559   0.26662   0.27312   0.12198
H          H       0.39887   0.01508   0.95528   0.12026
H          H       0.85631   0.86966   0.96995   0.10865
H          H       0.18089   0.40598   0.95806   0.10445
H          H       0.04558   0.21362   0.66931   0.10558
H          H       0.40362   0.60802   0.53507   0.11525
C          C       0.05304   0.25752   0.33638  -0.08390
C          C       0.97550   0.74560   0.84802   0.60743
C          C       0.30856   0.76563   0.83895  -0.08626
C          C       0.09766   0.49148   0.48769  -0.08854
C          C       0.83444   0.76287   0.78046  -0.10943
C          C       0.34861   0.74561   0.33930  -0.03867
C          C       0.88051   0.38045   0.49115   0.59474
C          C       0.01149   0.25829   0.27510  -0.08740
C          C       0.41368   0.72923   0.71730  -0.11063
C          C       0.36319   0.52123   0.01412  -0.08712
C          C       0.42028   0.37082   0.50765   0.61494
C          C       0.58631   0.27076   0.28271  -0.11056
C          C       0.27753   0.76189   0.65491   0.60730
C          C       0.69144   0.23437   0.16105  -0.08634
C          C       0.53909   0.56231   0.49610  -0.03858
C          C       0.15083   0.24612   0.33951  -0.03900
C          C       0.44644   0.75727   0.33633  -0.08545
C          C       0.19160   0.26611   0.83872  -0.08759
C          C       0.57972   0.62918   0.49235   0.61495
C          C       0.16556   0.23712   0.21955  -0.10942
C          C       0.61907   0.88062   0.49114   0.59433
C          C       0.55048   0.25674   0.09617   0.60964
C          C       0.73308   0.23042   0.22115  -0.08709
C          C       0.30246   0.74684   0.40498   0.60756
C          C       0.02449   0.25440   0.15198   0.60733
C          C       0.94605   0.93880   0.47991  -0.09397
C          C       0.11948   0.61955   0.50885   0.59501
C          C       0.86395   0.97933   0.98550  -0.08714
C          C       0.55356   0.24273   0.66368  -0.08570
C          C       0.32340   0.14536   0.99227   0.61241
C          C       0.76690   0.73051   0.22162  -0.08429
C          C       0.19699   0.24762   0.40526   0.60825
C          C       0.44256   0.05796   0.50454  -0.03555
C          C       0.70705   0.26577   0.72003  -0.09448
C          C       0.05755   0.55806   0.50447  -0.03596
C          C       0.69754   0.25315   0.59502   0.60749
C          C       0.23310   0.26949   0.77838  -0.08435
C          C       0.54072   0.06602   0.51689  -0.11485
C          C       0.31409   0.45772   0.99454  -0.03585
C          C       0.46090   0.43769   0.50390  -0.03855
C          C       0.80301   0.75238   0.59475   0.60820
C          C       0.68591   0.54228   0.00546  -0.03591
C          C       0.86364   0.10720   0.00369   0.60041
C          C       0.79350   0.76551   0.71972  -0.09521
C          C       0.52458   0.24555   0.84792   0.60736
C          C       0.44595   0.56084   0.52013  -0.09395
C          C       0.36357   0.39289   0.99496   0.59949
C          C       0.66601   0.26292   0.78063  -0.11174
C          C       0.67660   0.85464   0.00773   0.61206
C          C       0.20650   0.23449   0.28028  -0.09527
C          C       0.72334   0.92045   0.00695  -0.03713
C          C       0.59699   0.25625   0.16130  -0.03845
C          C       0.96078   0.06186   0.49574  -0.03872
C          C       0.06781   0.24973   0.21673  -0.03037
C          C       0.17356   0.64518   0.99288   0.61056
C          C       0.51207   0.24138   0.72473  -0.08491
C          C       0.54544   0.27624   0.22299  -0.09237
C          C       0.04500   0.22429   0.77707  -0.09306
C          C       0.81449   0.04249   0.00484  -0.03658
C          C       0.26692   0.76958   0.77885  -0.08712
C          C       0.93219   0.75026   0.78328  -0.03034
C          C       0.03922   0.93813   0.50426  -0.03830
C          C       0.17972   0.25260   0.71756  -0.03153
C          C       0.98851   0.74171   0.72490  -0.08737
C          C       0.72247   0.23811   0.34510   0.60708
C          C       0.77771   0.73975   0.34601   0.60549
C          C       0.44952   0.74326   0.90383   0.60957
C          C       0.13605   0.02067   0.01451  -0.08689
C          C       0.68312   0.41814   0.98555  -0.08482
C          C       0.48793   0.75861   0.27527  -0.08509
C          C       0.21854   0.45549   0.97412  -0.11567
C          C       0.91940   0.12799   0.49122   0.61363
C          C       0.13636   0.89279   0.99631   0.60014
C          C       0.31688   0.58186   0.01445  -0.08489
C          C       0.31998   0.75310   0.71807  -0.03016
C          C       0.94245   0.44194   0.49553  -0.03604
C          C       0.78146   0.54451   0.02588  -0.11573
C          C       0.94696   0.74248   0.66363  -0.08401
C          C       0.45928   0.93397   0.48311  -0.11475
C          C       0.55405   0.43916   0.47987  -0.09392
C          C       0.82681   0.48414   0.02757  -0.09479
C          C       0.77820   0.42029   0.00674  -0.03611
C          C       0.81810   0.91865   0.98562  -0.08394
C          C       0.67418   0.98389   0.02751  -0.09259
C          C       0.18551   0.95751   0.99516  -0.03675
C          C       0.47542   0.75445   0.15208   0.60755
C          C       0.90233   0.50851   0.51231  -0.08840
C          C       0.18190   0.08134   0.01438  -0.08424
C          C       0.40226   0.99134   0.48780  -0.08846
C          C       0.59774   0.00866   0.51220  -0.08862
C          C       0.95946   0.56601   0.51696  -0.11513
C          C       0.71915   0.04441   0.02555  -0.11644
C          C       0.05081   0.24334   0.90368   0.60905
C          C       0.95500   0.77570   0.22293  -0.09328
C          C       0.65138   0.25439   0.66070  -0.03843
C          C       0.09287  -0.00026   0.52437  -0.09130
C          C       0.08574   0.22913   0.71711  -0.10962
C          C       0.09703   0.24429   0.83867  -0.03619
C          C       0.82028   0.74739   0.28244  -0.03142
C          C       0.38093   0.11937   0.50886   0.59444
C          C       0.40300   0.74375   0.83870  -0.03837
C          C       0.63643   0.60710   0.00504   0.59963
C          C       0.28085   0.95559   0.97445  -0.11619
C          C       0.45455   0.72376   0.77701  -0.09241
C          C       0.94919   0.75666   0.09632   0.60915
C          C       0.43174   0.74991   0.21673  -0.03224
C          C       0.08060   0.87201   0.50878   0.61340
C          C       0.90297   0.75571   0.16134  -0.03614
C          C       0.56825   0.25008   0.78328  -0.03223
C          C       0.04054   0.43399   0.48304  -0.11474
C          C       0.27666   0.07954   0.99306  -0.03706
C          C       0.22180   0.57971   0.99327  -0.03641
C          C       0.90713   0.00026   0.47563  -0.09100
C          C       0.59284   0.50092   0.47589  -0.09160
C          C       0.05395   0.06120   0.52009  -0.09378
C          C       0.33399   0.73707   0.21937  -0.11191
C          C       0.68002   0.24690   0.28193  -0.03014
C          C       0.80840   0.73389   0.16129  -0.08777
C          C       0.40716   0.49907   0.52411  -0.09150
C          C       0.55744   0.94203   0.49546  -0.03532
C          C       0.82644   0.35481   0.00713   0.61030
C          C       0.63681   0.47877   0.98588  -0.08734
C          C       0.84917   0.75387   0.66049  -0.03896
C          C       0.32582   0.01611   0.97249  -0.09276
C          C       0.29295   0.73423   0.27997  -0.09427
C          C       0.91426   0.77086   0.28289  -0.10907
C          C       0.22228   0.26024   0.65400   0.60541
C          C       0.17319   0.51586   0.97243  -0.09468
O          O       0.85142   0.72798   0.53863  -0.70529
O          O       0.45167   0.38616   0.98770  -0.50779
O          O       0.68925   0.73968   0.35405  -0.50933
O          O       0.03322   0.81580   0.48137  -0.70852
O          O       0.04803   0.88626   0.99029  -0.50720
O          O       0.07575   0.67381   0.50104  -0.71976
O          O       0.90473   0.72764   0.03928  -0.71092
O          O       0.54833   0.61384   0.01230  -0.50764
O          O       0.21757   0.72716   0.40566  -0.53850
O          O       0.40538   0.77272   0.96075  -0.71050
O          O       0.71854   0.77284   0.59415  -0.53880
O          O       0.66480   0.22932   0.39084  -0.72002
O          O       0.59462   0.22727   0.03926  -0.71060
O          O       0.65776   0.62945   0.46144  -0.53758
O          O       0.29421   0.11975   0.51967  -0.50760
O          O       0.16482   0.26659   0.60690  -0.72077
O          O       0.31045   0.34285   0.00216  -0.71847
O          O       0.43681   0.25375   0.85854  -0.51063
O          O       0.91954   0.73060   0.89137  -0.72523
O          O       0.96971   0.21632   0.90250  -0.53302
O          O       0.78569   0.29690   0.97447  -0.70665
O          O       0.03029   0.78367   0.09750  -0.53333
O          O       0.58070   0.23357   0.89295  -0.72676
O          O       0.46714   0.31501   0.47844  -0.70774
O          O       0.18913   0.76032   0.64586  -0.50959
O          O       0.42469   0.17351   0.50067  -0.71895
O          O       0.70579   0.88024   0.48033  -0.50785
O          O       0.57531   0.82648   0.49933  -0.71869
O          O       0.95197   0.11374   0.00972  -0.50748
O          O       0.53285   0.68499   0.52156  -0.70772
O          O       0.28111   0.20270   0.02385  -0.70823
O          O       0.96677   0.18420   0.51863  -0.70883
O          O       0.21431   0.70310   0.02553  -0.70690
O          O       0.68954   0.65714   0.99784  -0.71875
O          O       0.93732   0.24346   0.13970  -0.51113
O          O       0.83518   0.73341   0.39310  -0.72074
O          O       0.90446   0.35729   0.03876  -0.53697
O          O       0.14857   0.27201   0.46137  -0.70529
O          O       0.09527   0.27235   0.96072  -0.71100
O          O       0.08046   0.26940   0.10863  -0.72538
O          O       0.56318   0.74625   0.14146  -0.51078
O          O       0.79374   0.38015   0.48057  -0.50805
O          O       0.28146   0.22716   0.40586  -0.53880
O          O       0.46963   0.28394   0.09727  -0.53565
O          O       0.53037   0.71605   0.90273  -0.53561
O          O       0.40158   0.14339   0.96115  -0.53729
O          O       0.41930   0.76642   0.10705  -0.72689
O          O       0.81087   0.23967   0.35415  -0.50973
O          O       0.15990   0.87275   0.53859  -0.53580
O          O       0.78243   0.27284   0.59434  -0.53872
O          O       0.33520   0.77067   0.60916  -0.72043
O          O       0.09554   0.64271   0.96125  -0.53692
O          O       0.64870   0.22973   0.53885  -0.70600
O          O       0.20626   0.61985   0.51943  -0.50826
O          O       0.81018   0.15718   0.99713  -0.72100
O          O       0.35130   0.77027   0.46115  -0.70605
O          O       0.84009   0.12724   0.46141  -0.53568
O          O       0.92425   0.32619   0.49896  -0.71955
O          O       0.31074   0.26031   0.64595  -0.50932
O          O       0.59841   0.85661   0.03885  -0.53710
O          O       0.71889   0.79730   0.97615  -0.70800
O          O       0.34224   0.37055   0.53856  -0.53743
O          O       0.18982   0.84281   0.00287  -0.72084
O          O       0.06268   0.75653   0.86030  -0.51135

