data_crystal

_audit_creation_method 'AiiDA-DDEC plugin'

_cell_length_a        20.77443
_cell_length_b        25.12804
_cell_length_c        25.06957

_cell_angle_alpha     98.02238
_cell_angle_beta     90.08412
_cell_angle_gamma     90.00456

_symmetry_space_group_name_Hall 'P 1'
_symmetry_space_group_name_H-M  'P 1'

loop_
_symmetry_equiv_pos_as_xyz
 'x,y,z'

loop_
_atom_site_label
_atom_site_type_symbol
_atom_site_fract_x
_atom_site_fract_y
_atom_site_fract_z
_atom_site_charge
Gd         Gd      0.46268   0.20747   0.12217   1.99318
Gd         Gd      0.47003   0.08987   0.19930   2.10663
Gd         Gd      0.50769   0.22607   0.27461   2.17517
Gd         Gd      0.62784   0.15632   0.16505   2.04974
Gd         Gd      0.54346   0.30802   0.41033   2.10760
Gd         Gd      0.55062   0.37960   0.28756   2.07590
Gd         Gd      0.39091   0.33715   0.33767   2.07889
Gd         Gd      0.96250   0.79201   0.37796   1.99503
Gd         Gd      0.97041   0.90891   0.30053   2.10482
Gd         Gd      0.00506   0.77297   0.22572   2.17445
Gd         Gd      0.12806   0.84288   0.33483   2.05114
Gd         Gd      0.04271   0.69230   0.09084   2.10707
Gd         Gd      0.05021   0.62014   0.21261   2.07809
Gd         Gd      0.88980   0.66136   0.16096   2.08343
Gd         Gd      0.53731   0.79253   0.87783   1.99325
Gd         Gd      0.52997   0.91013   0.80069   2.10651
Gd         Gd      0.49230   0.77393   0.72539   2.17512
Gd         Gd      0.37215   0.84368   0.83495   2.04962
Gd         Gd      0.45653   0.69198   0.58967   2.10772
Gd         Gd      0.44937   0.62040   0.71244   2.07592
Gd         Gd      0.60909   0.66285   0.66233   2.07884
Gd         Gd      0.03750   0.20799   0.62204   1.99509
Gd         Gd      0.02958   0.09109   0.69947   2.10478
Gd         Gd      0.99493   0.22703   0.77428   2.17431
Gd         Gd      0.87193   0.15712   0.66517   2.05118
Gd         Gd      0.95729   0.30770   0.90916   2.10709
Gd         Gd      0.94978   0.37986   0.78739   2.07799
Gd         Gd      0.11020   0.33863   0.83904   2.08327
H          H       0.38824   0.18507   0.21859   0.40127
H          H       0.56902   0.26721   0.18264   0.40873
H          H       0.53404   0.10488   0.09678   0.44023
H          H       0.57570   0.13460   0.26942   0.41188
H          H       0.62486   0.28806   0.31533   0.40279
H          H       0.44034   0.23451   0.36510   0.41376
H          H       0.44609   0.31722   0.23028   0.41109
H          H       0.72033   0.06250   0.05321   0.02010
H          H       0.48534   0.41243   0.39231   0.42940
H          H       0.65611   0.10840   0.31473   0.12224
H          H       0.63372   0.16988   0.48273   0.12008
H          H       0.71030   0.02744   0.33906   0.10627
H          H       0.69139   0.09029   0.50761   0.11591
H          H       0.46301   0.26829   0.54263   0.11296
H          H       0.27407   0.30787   0.49042   0.11426
H          H       0.71706   0.37317   0.47884   0.12257
H          H       0.72075   0.48035   0.35964   0.13092
H          H       0.47156   0.52319   0.23199   0.12387
H          H       0.29161   0.49391   0.30661   0.11512
H          H       0.41509   0.22538   0.61669   0.11500
H          H       0.22558   0.26584   0.56550   0.12318
H          H       0.42505   0.60380   0.19930   0.11050
H          H       0.24364   0.57302   0.27256   0.11114
H          H       0.85122   0.50459   0.49472   0.11065
H          H       0.80071   0.99021   0.37460   0.12244
H          H       0.66911   0.00239   0.50816   0.11115
H          H       0.81242   0.33762   0.51978   0.09882
H          H       0.80941   0.50614   0.58236   0.11210
H          H       0.81647   0.52232   0.32412   0.10119
H          H       0.81294   0.58784   0.49237   0.10809
H          H       0.23949   0.29729   0.67315   0.12496
H          H       0.33802   0.14632   0.63048   0.11389
H          H       0.85241   0.31676   0.60904   0.12462
H          H       0.85011   0.48468   0.67103   0.12442
H          H       0.85995   0.60929   0.30195   0.11846
H          H       0.85702   0.67438   0.46966   0.12513
H          H       0.35188   0.63094   0.13772   0.10685
H          H       0.25126   0.67130   0.28859   0.12466
H          H       0.79928   0.86800   0.47818   0.13416
H          H       0.69299   0.83189   0.51362   0.10500
H          H       0.70955   0.99438   0.59489   0.11659
H          H       0.22803   0.17575   0.77736   0.12602
H          H       0.24502   0.77922   0.17091   0.12654
H          H       0.63236   0.80683   0.59136   0.10801
H          H       0.64731   0.96889   0.67217   0.12033
H          H       0.40748   0.11846   0.70051   0.10944
H          H       0.21763   0.07703   0.75012   0.10778
H          H       0.42093   0.69078   0.10533   0.11372
H          H       0.23850   0.76356   0.07641   0.10787
H          H       0.45277   0.04106   0.73976   0.11364
H          H       0.26365   0.99804   0.78713   0.11836
H          H       0.46491   0.72114   0.02266   0.13029
H          H       0.28335   0.79459   0.99452   0.12613
H          H       0.88652   0.81486   0.28235   0.40573
H          H       0.06827   0.73205   0.31680   0.40772
H          H       0.03537   0.89340   0.40304   0.43892
H          H       0.07527   0.86273   0.23001   0.40914
H          H       0.12315   0.71331   0.18679   0.40774
H          H       0.93773   0.76454   0.13513   0.41389
H          H       0.94352   0.68106   0.26948   0.41302
H          H       0.22056   0.93812   0.44621   0.01856
H          H       0.98647   0.58706   0.10773   0.43085
H          H       0.15472   0.89151   0.18603   0.12243
H          H       0.13297   0.82969   0.01804   0.12089
H          H       0.20829   0.97271   0.16177   0.10531
H          H       0.19008   0.90949   0.99320   0.11473
H          H       0.96307   0.73201   0.95750   0.11349
H          H       0.77442   0.69099   0.00869   0.11410
H          H       0.21675   0.62788   0.02126   0.12275
H          H       0.21968   0.52058   0.14035   0.13073
H          H       0.97219   0.47575   0.26810   0.12294
H          H       0.79208   0.50498   0.19326   0.11573
H          H       0.91484   0.77596   0.88420   0.11441
H          H       0.72547   0.73429   0.93451   0.12307
H          H       0.92554   0.39548   0.30115   0.11161
H          H       0.74390   0.42640   0.22807   0.11161
H          H       0.35015   0.49606   0.00549   0.11026
H          H       0.29954   0.00991   0.12594   0.12203
H          H       0.16762   0.99731   0.99227   0.11161
H          H       0.31150   0.66313   0.98002   0.09895
H          H       0.30875   0.49450   0.91792   0.11032
H          H       0.31595   0.47741   0.17635   0.10025
H          H       0.31341   0.41281   0.00779   0.10975
H          H       0.73791   0.70476   0.82775   0.12413
H          H       0.83930   0.85451   0.87000   0.11424
H          H       0.35197   0.68373   0.89099   0.12535
H          H       0.35002   0.51562   0.82945   0.12375
H          H       0.36077   0.39081   0.19801   0.11869
H          H       0.35903   0.32677   0.03009   0.12460
H          H       0.85255   0.36833   0.36250   0.10661
H          H       0.75102   0.32855   0.21182   0.12551
H          H       0.29834   0.13141   0.02147   0.13399
H          H       0.19258   0.16771   0.98675   0.10507
H          H       0.20843   0.00517   0.90548   0.11664
H          H       0.72777   0.82659   0.72364   0.12485
H          H       0.74516   0.22023   0.32919   0.12609
H          H       0.13219   0.19301   0.90883   0.10681
H          H       0.14669   0.03098   0.82781   0.12021
H          H       0.90827   0.88276   0.80014   0.10991
H          H       0.71821   0.92387   0.75026   0.10670
H          H       0.92013   0.31003   0.39631   0.11360
H          H       0.73773   0.23647   0.42354   0.10672
H          H       0.95339   0.95969   0.76007   0.11319
H          H       0.76412   0.00245   0.71251   0.12025
H          H       0.96380   0.27948   0.47918   0.12939
H          H       0.78218   0.20557   0.50592   0.12605
H          H       0.61175   0.81493   0.78141   0.40106
H          H       0.43097   0.73279   0.81735   0.40875
H          H       0.46595   0.89512   0.90321   0.44024
H          H       0.42429   0.86540   0.73058   0.41227
H          H       0.37513   0.71194   0.68467   0.40318
H          H       0.55966   0.76549   0.63490   0.41356
H          H       0.55390   0.68278   0.76972   0.41101
H          H       0.27966   0.93750   0.94679   0.02002
H          H       0.51465   0.58757   0.60769   0.42947
H          H       0.34389   0.89160   0.68527   0.12209
H          H       0.36627   0.83012   0.51727   0.12006
H          H       0.28969   0.97256   0.66094   0.10630
H          H       0.30860   0.90971   0.49239   0.11612
H          H       0.53698   0.73171   0.45736   0.11325
H          H       0.72592   0.69213   0.50957   0.11406
H          H       0.28293   0.62682   0.52116   0.12252
H          H       0.27924   0.51965   0.64036   0.13066
H          H       0.52843   0.47681   0.76801   0.12412
H          H       0.70838   0.50609   0.69339   0.11503
H          H       0.58491   0.77462   0.38331   0.11526
H          H       0.77441   0.73416   0.43450   0.12285
H          H       0.57494   0.39620   0.80070   0.11075
H          H       0.75635   0.42698   0.72743   0.11075
H          H       0.14877   0.49541   0.50528   0.11092
H          H       0.19928   0.00979   0.62540   0.12244
H          H       0.33089   0.99761   0.49184   0.11091
H          H       0.18757   0.66238   0.48022   0.09881
H          H       0.19059   0.49386   0.41763   0.11197
H          H       0.18352   0.47768   0.67587   0.10112
H          H       0.18705   0.41216   0.50762   0.10824
H          H       0.76051   0.70270   0.32685   0.12495
H          H       0.66198   0.85368   0.36952   0.11399
H          H       0.14758   0.68324   0.39096   0.12473
H          H       0.14988   0.51532   0.32897   0.12460
H          H       0.14005   0.39070   0.69805   0.11842
H          H       0.14297   0.32562   0.53034   0.12524
H          H       0.64811   0.36905   0.86228   0.10696
H          H       0.74874   0.32870   0.71141   0.12462
H          H       0.20071   0.13200   0.52182   0.13424
H          H       0.30700   0.16811   0.48638   0.10497
H          H       0.29045   0.00562   0.40510   0.11671
H          H       0.77196   0.82425   0.22264   0.12600
H          H       0.75497   0.22078   0.82909   0.12649
H          H       0.36764   0.19317   0.40864   0.10790
H          H       0.35269   0.03111   0.32782   0.12033
H          H       0.59251   0.88154   0.29949   0.10963
H          H       0.78236   0.92297   0.24988   0.10744
H          H       0.57907   0.30921   0.89466   0.11395
H          H       0.76150   0.23644   0.92359   0.10766
H          H       0.54722   0.95894   0.26024   0.11392
H          H       0.73634   0.00196   0.21286   0.11821
H          H       0.53509   0.27886   0.97734   0.13068
H          H       0.71664   0.20541   0.00548   0.12585
H          H       0.11347   0.18514   0.71765   0.40535
H          H       0.93172   0.26795   0.68320   0.40791
H          H       0.96462   0.10659   0.59695   0.43921
H          H       0.92473   0.13727   0.76999   0.40935
H          H       0.87685   0.28669   0.81321   0.40821
H          H       0.06226   0.23546   0.86487   0.41367
H          H       0.05648   0.31894   0.73052   0.41302
H          H       0.77943   0.06188   0.55379   0.01869
H          H       0.01352   0.41294   0.89227   0.43060
H          H       0.84527   0.10849   0.81397   0.12255
H          H       0.86702   0.17031   0.98196   0.12076
H          H       0.79170   0.02729   0.83823   0.10552
H          H       0.80992   0.09051   0.00680   0.11346
H          H       0.03692   0.26799   0.04250   0.11384
H          H       0.22557   0.30901   0.99131   0.11393
H          H       0.78324   0.37212   0.97874   0.12245
H          H       0.78031   0.47942   0.85965   0.13065
H          H       0.02780   0.52425   0.73189   0.12324
H          H       0.20791   0.49501   0.80674   0.11554
H          H       0.08516   0.22404   0.11580   0.11447
H          H       0.27453   0.26571   0.06548   0.12278
H          H       0.07446   0.60452   0.69885   0.11182
H          H       0.25609   0.57360   0.77193   0.11125
H          H       0.64985   0.50394   0.99451   0.11040
H          H       0.70045   0.99009   0.87405   0.12220
H          H       0.83238   0.00269   0.00773   0.11140
H          H       0.68849   0.33687   0.01998   0.09902
H          H       0.69125   0.50550   0.08208   0.11028
H          H       0.68405   0.52258   0.82365   0.10023
H          H       0.68658   0.58720   0.99221   0.10964
H          H       0.26208   0.29524   0.17225   0.12407
H          H       0.16069   0.14549   0.13000   0.11442
H          H       0.64803   0.31627   0.10901   0.12540
H          H       0.64998   0.48438   0.17055   0.12374
H          H       0.63922   0.60919   0.80198   0.11881
H          H       0.64096   0.67323   0.96990   0.12458
H          H       0.14744   0.63167   0.63750   0.10686
H          H       0.24897   0.67145   0.78818   0.12540
H          H       0.70166   0.86859   0.97853   0.13408
H          H       0.80742   0.83229   0.01325   0.10516
H          H       0.79156   0.99483   0.09452   0.11671
H          H       0.27223   0.17341   0.27636   0.12453
H          H       0.25483   0.77977   0.67081   0.12607
H          H       0.86780   0.80699   0.09117   0.10680
H          H       0.85330   0.96902   0.17218   0.12006
H          H       0.09172   0.11724   0.19985   0.11005
H          H       0.28178   0.07613   0.24974   0.10659
H          H       0.07986   0.68997   0.60369   0.11372
H          H       0.26227   0.76353   0.57646   0.10635
H          H       0.04660   0.04031   0.23993   0.11358
H          H       0.23587   0.99755   0.28749   0.11999
H          H       0.03619   0.72052   0.52082   0.13012
H          H       0.21781   0.79443   0.49408   0.12590
C          C       0.59953   0.18802   0.38343   0.63795
C          C       0.69451   0.08966   0.08465   0.47715
C          C       0.63931   0.14316   0.39746  -0.06239
C          C       0.40289   0.31865   0.46937   0.65481
C          C       0.65807   0.39525   0.39065   0.65288
C          C       0.41428   0.45504   0.29074   0.64395
C          C       0.66274   0.10372   0.35689  -0.07948
C          C       0.65094   0.13849   0.45178  -0.08727
C          C       0.37185   0.29163   0.51204  -0.06761
C          C       0.71528   0.42343   0.41619  -0.04446
C          C       0.38500   0.50352   0.27187  -0.06038
C          C       0.69450   0.05888   0.37063  -0.13134
C          C       0.68265   0.09361   0.46539  -0.14405
C          C       0.41111   0.26724   0.54751  -0.08492
C          C       0.30472   0.29000   0.51835  -0.07950
C          C       0.73888   0.40741   0.46381  -0.13806
C          C       0.74077   0.46823   0.39622  -0.13155
C          C       0.42180   0.53464   0.24076  -0.08212
C          C       0.32063   0.51825   0.28317  -0.08069
C          C       0.70339   0.05256   0.42505   0.08075
C          C       0.38409   0.24304   0.58884  -0.14353
C          C       0.27765   0.26671   0.56054  -0.13706
C          C       0.78767   0.43682   0.49281   0.06622
C          C       0.78922   0.49840   0.42523   0.06738
C          C       0.39518   0.57946   0.22208  -0.14304
C          C       0.29399   0.56317   0.26431  -0.13557
C          C       0.73150   0.00278   0.43974   0.06374
C          C       0.31706   0.24361   0.59689   0.08576
C          C       0.81000   0.42324   0.54500   0.07844
C          C       0.81251   0.48189   0.47286  -0.17051
C          C       0.81338   0.54908   0.40975   0.07463
C          C       0.33083   0.59493   0.23354   0.08124
C          C       0.78013   0.97468   0.40915  -0.13119
C          C       0.70830   0.98190   0.48500  -0.17181
C          C       0.29010   0.22316   0.64504   0.07132
C          C       0.82059   0.36969   0.55294  -0.13746
C          C       0.82000   0.46488   0.58791  -0.14755
C          C       0.82538   0.55559   0.35591  -0.13400
C          C       0.82446   0.59221   0.45089  -0.14573
C          C       0.30443   0.64426   0.21491   0.06338
C          C       0.80402   0.92654   0.42335  -0.03810
C          C       0.73179   0.93368   0.49983   0.06400
C          C       0.25090   0.25677   0.68081  -0.13210
C          C       0.30738   0.17236   0.65804  -0.16909
C          C       0.84350   0.35792   0.60217  -0.07500
C          C       0.84200   0.45326   0.63724  -0.08780
C          C       0.85033   0.60391   0.34350  -0.07921
C          C       0.84824   0.64041   0.43861  -0.09215
C          C       0.32226   0.65859   0.16457  -0.16960
C          C       0.26433   0.67949   0.24848  -0.13061
C          C       0.77943   0.90540   0.46807  -0.12870
C          C       0.85814   0.89907   0.39170   0.64549
C          C       0.70359   0.91535   0.54815   0.08247
C          C       0.22849   0.23907   0.72800  -0.02513
C          C       0.28539   0.15413   0.70539   0.07011
C          C       0.85511   0.39985   0.64407  -0.04383
C          C       0.86202   0.64623   0.38497  -0.04333
C          C       0.30172   0.70693   0.14750   0.05836
C          C       0.24280   0.72754   0.23196  -0.02220
C          C       0.68369   0.86191   0.54846  -0.13726
C          C       0.69191   0.95346   0.59386  -0.14051
C          C       0.24446   0.18768   0.73957  -0.14764
C          C       0.19132   0.27523   0.76896   0.56736
C          C       0.30944   0.10360   0.72267   0.07388
C          C       0.88323   0.38983   0.69574   0.55762
C          C       0.88892   0.69854   0.37570   0.55973
C          C       0.26074   0.74074   0.18155  -0.14397
C          C       0.32612   0.72401   0.09686   0.09101
C          C       0.20426   0.76736   0.26941   0.55211
C          C       0.64900   0.84792   0.59194  -0.07949
C          C       0.65772   0.93936   0.63730  -0.08711
C          C       0.37563   0.09183   0.71884  -0.13699
C          C       0.26914   0.06907   0.74730  -0.14377
C          C       0.39013   0.71242   0.08061  -0.13959
C          C       0.28823   0.75419   0.06508  -0.13991
C          C       0.63433   0.88683   0.63610  -0.06077
C          C       0.40126   0.04864   0.74104  -0.09203
C          C       0.29463   0.02489   0.76823  -0.08558
C          C       0.41532   0.72962   0.03458  -0.07085
C          C       0.31315   0.77169   0.01891  -0.07006
C          C       0.59199   0.87447   0.68037   0.64131
C          C       0.36116   0.01485   0.76637  -0.04084
C          C       0.37702   0.75919   0.00287  -0.04895
C          C       0.38958   0.96944   0.79153   0.63512
C          C       0.40252   0.77400   0.95220   0.56362
C          C       0.09907   0.81110   0.11676   0.63604
C          C       0.19459   0.91053   0.41514   0.47704
C          C       0.13821   0.85651   0.10327  -0.06648
C          C       0.90300   0.68032   0.02983   0.65611
C          C       0.15806   0.60594   0.10970   0.64809
C          C       0.91441   0.54375   0.20841   0.64221
C          C       0.16126   0.89615   0.14386  -0.07861
C          C       0.14987   0.86125   0.04899  -0.08335
C          C       0.87201   0.70796   0.98754  -0.06807
C          C       0.21481   0.57744   0.08384  -0.04598
C          C       0.88551   0.49545   0.22796  -0.05604
C          C       0.19275   0.94116   0.13017  -0.13105
C          C       0.18131   0.90623   0.03541  -0.14573
C          C       0.91114   0.73304   0.95261  -0.08504
C          C       0.80486   0.70951   0.98117  -0.07973
C          C       0.23832   0.59349   0.03626  -0.13623
C          C       0.24001   0.53243   0.10379  -0.13086
C          C       0.92240   0.46442   0.25922  -0.08506
C          C       0.82112   0.48070   0.21676  -0.08132
C          C       0.20179   0.94743   0.07577   0.08040
C          C       0.88393   0.75783   0.91171  -0.14262
C          C       0.77757   0.73348   0.93948  -0.13523
C          C       0.28681   0.56386   0.00726   0.06412
C          C       0.28829   0.50203   0.07489   0.06774
C          C       0.89572   0.41979   0.27821  -0.14228
C          C       0.79437   0.43612   0.23603  -0.13816
C          C       0.22997   0.99715   0.06093   0.06388
C          C       0.81686   0.75729   0.90364   0.08525
C          C       0.30921   0.57740   0.95508   0.08020
C          C       0.31143   0.51867   0.02726  -0.16793
C          C       0.31304   0.45139   0.09047   0.07325
C          C       0.83128   0.40448   0.26687   0.08136
C          C       0.27888   0.02526   0.09129  -0.13007
C          C       0.20685   0.01781   0.01548  -0.17279
C          C       0.78969   0.77835   0.85588   0.06974
C          C       0.31985   0.63093   0.94703  -0.13868
C          C       0.31942   0.53573   0.91227  -0.14727
C          C       0.32526   0.44452   0.14424  -0.13250
C          C       0.32492   0.40844   0.04929  -0.14984
C          C       0.80478   0.35523   0.28539   0.06273
C          C       0.30317   0.07313   0.07668  -0.03879
C          C       0.23051   0.06588   0.00050   0.06292
C          C       0.74978   0.74521   0.82023  -0.13051
C          C       0.80770   0.82892   0.84278  -0.16760
C          C       0.34304   0.64258   0.89786  -0.07448
C          C       0.34173   0.54721   0.86304  -0.08668
C          C       0.35120   0.39642   0.15646  -0.08120
C          C       0.34973   0.36042   0.06134  -0.08997
C          C       0.82259   0.34087   0.33568  -0.16834
C          C       0.76423   0.32024   0.25188  -0.13167
C          C       0.27843   0.09419   0.03199  -0.12967
C          C       0.35801   0.10008   0.10786   0.64816
C          C       0.20251   0.08421   0.95215   0.08504
C          C       0.72754   0.76283   0.77292  -0.02658
C          C       0.78554   0.84732   0.79550   0.07014
C          C       0.35487   0.60060   0.85603  -0.04445
C          C       0.36385   0.35437   0.11493  -0.04269
C          C       0.80158   0.29277   0.35286   0.05706
C          C       0.74278   0.27212   0.26824  -0.02256
C          C       0.18307   0.13775   0.95185  -0.13772
C          C       0.19090   0.04613   0.90640  -0.14130
C          C       0.74393   0.81417   0.76135  -0.14444
C          C       0.69095   0.72574   0.73217   0.56318
C          C       0.81004   0.89758   0.77800   0.07134
C          C       0.38316   0.61041   0.80434   0.55858
C          C       0.39142   0.30211   0.12407   0.56185
C          C       0.76083   0.25877   0.31862  -0.14207
C          C       0.82554   0.27614   0.40384   0.08820
C          C       0.70416   0.23240   0.23059   0.54951
C          C       0.14868   0.15188   0.90824  -0.07834
C          C       0.15709   0.06042   0.86279  -0.08498
C          C       0.87630   0.90924   0.78167  -0.13875
C          C       0.76972   0.93191   0.75305  -0.14067
C          C       0.88935   0.28810   0.42073  -0.13960
C          C       0.78735   0.24592   0.43525  -0.13863
C          C       0.13404   0.11305   0.86397  -0.06253
C          C       0.90186   0.95219   0.75905  -0.08681
C          C       0.79514   0.97583   0.73172  -0.08597
C          C       0.91426   0.27088   0.46689  -0.06708
C          C       0.81195   0.22848   0.48158  -0.06967
C          C       0.09196   0.12561   0.81958   0.64065
C          C       0.86168   0.98581   0.73353  -0.04892
C          C       0.87566   0.24101   0.49803  -0.05446
C          C       0.88979   0.03125   0.70837   0.64067
C          C       0.90016   0.22582   0.54884   0.56964
C          C       0.40046   0.81198   0.61656   0.63798
C          C       0.30549   0.91034   0.91535   0.47724
C          C       0.36069   0.85684   0.60254  -0.06250
C          C       0.59710   0.68135   0.53062   0.65561
C          C       0.34192   0.60475   0.60935   0.65349
C          C       0.58571   0.54496   0.70926   0.64403
C          C       0.33725   0.89627   0.64310  -0.07957
C          C       0.34905   0.86151   0.54822  -0.08731
C          C       0.62814   0.70837   0.48796  -0.06800
C          C       0.28471   0.57657   0.58380  -0.04468
C          C       0.61499   0.49648   0.72813  -0.06038
C          C       0.30549   0.94112   0.62937  -0.13122
C          C       0.31735   0.90639   0.53461  -0.14402
C          C       0.58889   0.73276   0.45249  -0.08476
C          C       0.69527   0.71000   0.48164  -0.07954
C          C       0.26111   0.59259   0.53619  -0.13794
C          C       0.25922   0.53177   0.60378  -0.13152
C          C       0.57820   0.46536   0.75923  -0.08186
C          C       0.67936   0.48175   0.71683  -0.08096
C          C       0.29660   0.94744   0.57495   0.08082
C          C       0.61590   0.75696   0.41116  -0.14326
C          C       0.72235   0.73329   0.43945  -0.13714
C          C       0.21233   0.56318   0.50719   0.06608
C          C       0.21077   0.50159   0.57477   0.06721
C          C       0.60482   0.42053   0.77792  -0.14335
C          C       0.70600   0.43683   0.73568  -0.13544
C          C       0.26850   0.99722   0.56025   0.06355
C          C       0.68293   0.75639   0.40311   0.08554
C          C       0.18999   0.57676   0.45500   0.07857
C          C       0.18748   0.51810   0.52714  -0.17021
C          C       0.18661   0.45092   0.59025   0.07485
C          C       0.66916   0.40507   0.76645   0.08142
C          C       0.21986   0.02532   0.59085  -0.13091
C          C       0.29169   0.01810   0.51500  -0.17196
C          C       0.70990   0.77684   0.35496   0.07136
C          C       0.17940   0.63031   0.44706  -0.13760
C          C       0.17999   0.53512   0.41209  -0.14749
C          C       0.17461   0.44441   0.64409  -0.13428
C          C       0.17553   0.40779   0.54911  -0.14611
C          C       0.69556   0.35574   0.78509   0.06338
C          C       0.19597   0.07346   0.57665  -0.03812
C          C       0.26821   0.06632   0.50016   0.06405
C          C       0.74909   0.74323   0.31919  -0.13215
C          C       0.69261   0.82764   0.34196  -0.16909
C          C       0.15649   0.64208   0.39782  -0.07520
C          C       0.15800   0.54674   0.36276  -0.08790
C          C       0.14966   0.39609   0.65650  -0.07919
C          C       0.15175   0.35959   0.56138  -0.09187
C          C       0.67773   0.34141   0.83543  -0.16959
C          C       0.73566   0.32050   0.75152  -0.13058
C          C       0.22056   0.09460   0.53193  -0.12849
C          C       0.14185   0.10093   0.60830   0.64535
C          C       0.29640   0.08465   0.45185   0.08246
C          C       0.77150   0.76093   0.27200  -0.02517
C          C       0.71460   0.84587   0.29460   0.07021
C          C       0.14488   0.60015   0.35593  -0.04365
C          C       0.13797   0.35377   0.61502  -0.04331
C          C       0.69828   0.29307   0.85250   0.05835
C          C       0.75719   0.27246   0.76804  -0.02228
C          C       0.31630   0.13809   0.45154  -0.13719
C          C       0.30808   0.04654   0.40614  -0.14062
C          C       0.75553   0.81232   0.26043  -0.14776
C          C       0.80868   0.72477   0.23104   0.56765
C          C       0.69055   0.89640   0.27733   0.07395
C          C       0.11676   0.61017   0.30425   0.55732
C          C       0.11107   0.30146   0.62430   0.55946
C          C       0.73925   0.25926   0.81845  -0.14404
C          C       0.67388   0.27599   0.90313   0.09101
C          C       0.79573   0.23264   0.73059   0.55234
C          C       0.35099   0.15208   0.40806  -0.07949
C          C       0.34227   0.06064   0.36270  -0.08700
C          C       0.62436   0.90817   0.28116  -0.13709
C          C       0.73085   0.93093   0.25270  -0.14394
C          C       0.60986   0.28758   0.91939  -0.13941
C          C       0.71176   0.24580   0.93491  -0.14000
C          C       0.36566   0.11317   0.36389  -0.06069
C          C       0.59873   0.95136   0.25896  -0.09172
C          C       0.70536   0.97511   0.23177  -0.08560
C          C       0.58468   0.27038   0.96542  -0.07105
C          C       0.68684   0.22831   0.98109  -0.07016
C          C       0.40800   0.12553   0.31963   0.64121
C          C       0.63884   0.98515   0.23362  -0.04079
C          C       0.62297   0.24081   0.99713  -0.04881
C          C       0.61041   0.03056   0.20847   0.63486
C          C       0.59748   0.22600   0.04780   0.56388
C          C       0.90093   0.18890   0.88323   0.63578
C          C       0.80541   0.08947   0.58486   0.47751
C          C       0.86178   0.14349   0.89673  -0.06653
C          C       0.09700   0.31968   0.97017   0.65609
C          C       0.84193   0.39406   0.89030   0.64818
C          C       0.08559   0.45625   0.79159   0.64246
C          C       0.83873   0.10385   0.85613  -0.07866
C          C       0.85012   0.13875   0.95101  -0.08344
C          C       0.12798   0.29204   0.01246  -0.06803
C          C       0.78519   0.42256   0.91616  -0.04594
C          C       0.11448   0.50455   0.77204  -0.05630
C          C       0.80725   0.05884   0.86983  -0.13102
C          C       0.81868   0.09377   0.96459  -0.14438
C          C       0.08886   0.26696   0.04739  -0.08486
C          C       0.19513   0.29049   0.01883  -0.07971
C          C       0.76167   0.40651   0.96373  -0.13623
C          C       0.75998   0.46757   0.89621  -0.13073
C          C       0.07760   0.53558   0.74077  -0.08466
C          C       0.17887   0.51930   0.78324  -0.08132
C          C       0.79820   0.05257   0.92423   0.08038
C          C       0.11606   0.24217   0.08828  -0.14252
C          C       0.22243   0.26652   0.06052  -0.13555
C          C       0.71318   0.43614   0.99274   0.06418
C          C       0.71170   0.49797   0.92511   0.06747
C          C       0.10428   0.58021   0.72179  -0.14244
C          C       0.20563   0.56388   0.76397  -0.13822
C          C       0.77002   0.00285   0.93907   0.06393
C          C       0.18313   0.24271   0.09635   0.08528
C          C       0.69078   0.42260   0.04492   0.08011
C          C       0.68857   0.48133   0.97274  -0.16759
C          C       0.68696   0.54861   0.90953   0.07353
C          C       0.16871   0.59552   0.73313   0.08134
C          C       0.72111   0.97474   0.90871  -0.12991
C          C       0.79314   0.98219   0.98452  -0.17314
C          C       0.21030   0.22164   0.14412   0.06974
C          C       0.68015   0.36907   0.05297  -0.13863
C          C       0.68057   0.46427   0.08772  -0.14742
C          C       0.67473   0.55547   0.85575  -0.13246
C          C       0.67507   0.59156   0.95071  -0.15041
C          C       0.19522   0.64477   0.71461   0.06297
C          C       0.69682   0.92687   0.92332  -0.03869
C          C       0.76949   0.93412  -0.00050   0.06292
C          C       0.25021   0.25478   0.17976  -0.13061
C          C       0.19229   0.17108   0.15722  -0.16738
C          C       0.65696   0.35742   0.10214  -0.07456
C          C       0.65826   0.45279   0.13696  -0.08669
C          C       0.64879   0.60358   0.84353  -0.08129
C          C       0.65026   0.63958   0.93865  -0.08958
C          C       0.17740   0.65913   0.66431  -0.16839
C          C       0.23576   0.67976   0.74811  -0.13184
C          C       0.72156   0.90581   0.96801  -0.12960
C          C       0.64198   0.89992   0.89214   0.64787
C          C       0.79748   0.91579   0.04785   0.08526
C          C       0.27245   0.23716   0.22708  -0.02667
C          C       0.21445   0.15268   0.20450   0.06990
C          C       0.64512   0.39940   0.14397  -0.04440
C          C       0.63615   0.64563   0.88507  -0.04257
C          C       0.19841   0.70723   0.64713   0.05727
C          C       0.25721   0.72788   0.73176  -0.02261
C          C       0.81693   0.86225   0.04815  -0.13755
C          C       0.80909   0.95387   0.09360  -0.14134
C          C       0.25607   0.18583   0.23865  -0.14421
C          C       0.30904   0.27426   0.26783   0.56318
C          C       0.18995   0.10241   0.22200   0.07158
C          C       0.61683   0.38959   0.19566   0.55851
C          C       0.60857   0.69789   0.87593   0.56180
C          C       0.23916   0.74123   0.68138  -0.14218
C          C       0.17446   0.72386   0.59616   0.08802
C          C       0.29584   0.76760   0.76940   0.54994
C          C       0.85132   0.84812   0.09176  -0.07842
C          C       0.84290   0.93958   0.13721  -0.08492
C          C       0.12369   0.09075   0.21833  -0.13850
C          C       0.23027   0.06809   0.24695  -0.14129
C          C       0.11065   0.71190   0.57927  -0.13936
C          C       0.21264   0.75408   0.56475  -0.13865
C          C       0.86595   0.88695   0.13603  -0.06276
C          C       0.09813   0.04781   0.24094  -0.08686
C          C       0.20485   0.02417   0.26827  -0.08593
C          C       0.08573   0.72912   0.53311  -0.06761
C          C       0.18805   0.77152   0.51842  -0.06971
C          C       0.90803   0.87439   0.18042   0.64077
C          C       0.13831   0.01419   0.26646  -0.04867
C          C       0.12433   0.75899   0.50197  -0.05448
C          C       0.11021   0.96875   0.29163   0.64068
C          C       0.09983   0.77418   0.45116   0.56971
O          O       0.43369   0.18229   0.20911  -1.11970
O          O       0.54928   0.23255   0.18684  -1.12973
O          O       0.52066   0.12730   0.12988  -1.13771
O          O       0.37688   0.14557   0.09783  -0.63364
O          O       0.42517   0.29676   0.16624  -0.63897
O          O       0.38292   0.26195   0.08754  -0.60920
O          O       0.49720   0.19822   0.03458  -0.51493
O          O       0.55197   0.14316   0.23803  -1.13228
O          O       0.54892   0.02773   0.19893  -0.72361
O          O       0.38365   0.07421   0.14346  -0.71229
O          O       0.41265   0.08990   0.27757  -0.70371
O          O       0.57906   0.29660   0.31724  -1.12613
O          O       0.46100   0.26870   0.35968  -1.14423
O          O       0.46408   0.31754   0.26727  -1.14021
O          O       0.57775   0.18542   0.33598  -0.64271
O          O       0.43880   0.16965   0.32518  -0.64475
O          O       0.72690   0.12122   0.11883  -0.60341
O          O       0.63323   0.08747   0.08467  -0.59666
O          O       0.64625   0.06853   0.19846  -0.61152
O          O       0.69434   0.24052   0.18229  -0.60165
O          O       0.68175   0.19073   0.24883  -0.64357
O          O       0.62717   0.20141   0.07911  -0.51343
O          O       0.49312   0.37805   0.37042  -1.14916
O          O       0.46444   0.32539   0.47326  -0.71094
O          O       0.58791   0.22785   0.42081  -0.71449
O          O       0.63227   0.35987   0.41650  -0.71689
O          O       0.63630   0.40765   0.34666  -0.65167
O          O       0.47322   0.44433   0.27809  -0.69040
O          O       0.59091   0.34387   0.20099  -0.63736
O          O       0.61674   0.42819   0.23510  -0.63042
O          O       0.36948   0.33346   0.43117  -0.67855
O          O       0.37979   0.42602   0.31773  -0.68208
O          O       0.30892   0.32511   0.26703  -0.62800
O          O       0.34079   0.25389   0.30434  -0.65759
O          O       0.46421   0.75371   0.93904  -0.27120
O          O       0.93221   0.81735   0.29109  -1.12490
O          O       0.04871   0.76683   0.31280  -1.12905
O          O       0.02187   0.87095   0.36995  -1.13775
O          O       0.87722   0.85398   0.40254  -0.63324
O          O       0.92223   0.70375   0.33336  -0.64029
O          O       0.88057   0.73866   0.41225  -0.60892
O          O      -0.00012   0.80085   0.46514  -0.51551
O          O       0.05179   0.85490   0.26179  -1.12857
O          O       0.04875   0.97115   0.30120  -0.72744
O          O       0.88305   0.92368   0.35486  -0.71157
O          O       0.91274   0.91000   0.22250  -0.70034
O          O       0.07774   0.70348   0.18471  -1.13173
O          O       0.95859   0.73037   0.14027  -1.14674
O          O       0.96157   0.68036   0.23255  -1.14160
O          O       0.07753   0.81234   0.16411  -0.64209
O          O       0.93867   0.83020   0.17489  -0.64803
O          O       0.22697   0.87871   0.38129  -0.60331
O          O       0.13329   0.91250   0.41520  -0.59601
O          O       0.14631   0.93099   0.30161  -0.61267
O          O       0.19436   0.75924   0.31769  -0.60438
O          O       0.18194   0.80905   0.25114  -0.64160
O          O       0.13019   0.79914   0.42071  -0.51248
O          O       0.99309   0.62167   0.12954  -1.15057
O          O       0.96467   0.67453   0.02676  -0.71011
O          O       0.08772   0.77176   0.07877  -0.71289
O          O       0.13297   0.64237   0.08470  -0.71385
O          O       0.13598   0.59269   0.15319  -0.65114
O          O       0.97297   0.55535   0.22183  -0.69164
O          O       0.09101   0.65596   0.29907  -0.63693
O          O       0.11666   0.57165   0.26474  -0.63031
O          O       0.86927   0.66410   0.06709  -0.68137
O          O       0.88003   0.57148   0.17989  -0.68073
O          O       0.80834   0.67374   0.23048  -0.63515
O          O       0.84113   0.74599   0.19566  -0.65647
O          O       0.96139   0.24627   0.56326  -0.27439
O          O       0.56630   0.81771   0.79089  -1.11990
O          O       0.45071   0.76745   0.81315  -1.12957
O          O       0.47933   0.87270   0.87012  -1.13768
O          O       0.62312   0.85443   0.90216  -0.63349
O          O       0.57482   0.70325   0.83376  -0.63854
O          O       0.61707   0.73805   0.91247  -0.60961
O          O       0.50279   0.80178   0.96542  -0.51522
O          O       0.44803   0.85684   0.76197  -1.13248
O          O       0.45107   0.97227   0.80107  -0.72402
O          O       0.61634   0.92579   0.85653  -0.71211
O          O       0.58735   0.91010   0.72243  -0.70380
O          O       0.42093   0.70340   0.68275  -1.12630
O          O       0.53899   0.73130   0.64032  -1.14409
O          O       0.53591   0.68246   0.73273  -1.14024
O          O       0.42225   0.81458   0.66401  -0.64290
O          O       0.56120   0.83035   0.67482  -0.64453
O          O       0.27309   0.87878   0.88117  -0.60281
O          O       0.36676   0.91253   0.91533  -0.59722
O          O       0.35375   0.93147   0.80154  -0.61128
O          O       0.30565   0.75948   0.81771  -0.60194
O          O       0.31824   0.80927   0.75116  -0.64374
O          O       0.37283   0.79859   0.92089  -0.51298
O          O       0.50687   0.62195   0.62958  -1.14924
O          O       0.53555   0.67461   0.52674  -0.71073
O          O       0.41209   0.77215   0.57918  -0.71436
O          O       0.36773   0.64012   0.58349  -0.71718
O          O       0.36369   0.59235   0.65334  -0.65208
O          O       0.52677   0.55567   0.72191  -0.69000
O          O       0.40907   0.65613   0.79900  -0.63766
O          O       0.38326   0.57181   0.76490  -0.63023
O          O       0.63052   0.66654   0.56883  -0.67927
O          O       0.62020   0.57398   0.68227  -0.68239
O          O       0.69107   0.67489   0.73296  -0.62820
O          O       0.65920   0.74611   0.69566  -0.65737
O          O       0.53579   0.24629   0.06096  -0.27124
O          O       0.06778   0.18265   0.70891  -1.12481
O          O       0.95129   0.23317   0.68719  -1.12909
O          O       0.97812   0.12905   0.63005  -1.13800
O          O       0.12277   0.14602   0.59746  -0.63313
O          O       0.07776   0.29625   0.66664  -0.64010
O          O       0.11943   0.26134   0.58775  -0.60883
O          O       0.00012   0.19914   0.53486  -0.51557
O          O       0.94820   0.14510   0.73820  -1.12867
O          O       0.95124   0.02885   0.69880  -0.72771
O          O       0.11694   0.07632   0.64514  -0.71158
O          O       0.08726   0.09000   0.77750  -0.70027
O          O       0.92226   0.29652   0.81529  -1.13194
O          O       0.04141   0.26963   0.85973  -1.14669
O          O       0.03842   0.31964   0.76744  -1.14156
O          O       0.92246   0.18766   0.83589  -0.64199
O          O       0.06132   0.16980   0.82511  -0.64778
O          O       0.77303   0.12129   0.61871  -0.60306
O          O       0.86671   0.08750   0.58480  -0.59674
O          O       0.85369   0.06901   0.69839  -0.61223
O          O       0.80564   0.24076   0.68230  -0.60430
O          O       0.81805   0.19095   0.74886  -0.64192
O          O       0.86980   0.20086   0.57929  -0.51218
O          O       0.00691   0.37832   0.87046  -1.15036
O          O       0.03532   0.32547   0.97323  -0.70973
O          O       0.91227   0.22824   0.92122  -0.71295
O          O       0.86703   0.35763   0.91530  -0.71408
O          O       0.86401   0.40731   0.84681  -0.65117
O          O       0.02702   0.44465   0.77817  -0.69118
O          O       0.90898   0.34404   0.70093  -0.63706
O          O       0.88333   0.42834   0.73526  -0.63049
O          O       0.13072   0.33589   0.93291  -0.68166
O          O       0.11996   0.42851   0.82011  -0.68127
O          O       0.19165   0.32626   0.76951  -0.63518
O          O       0.15886   0.25401   0.80434  -0.65626
O          O       0.03860   0.75372   0.43674  -0.27415

