data_crystal

_audit_creation_method 'AiiDA-DDEC plugin'

_cell_length_a        33.66328
_cell_length_b        33.66333
_cell_length_c        33.66337

_cell_angle_alpha     89.90588
_cell_angle_beta     89.90603
_cell_angle_gamma     89.90603

_symmetry_space_group_name_Hall 'P 1'
_symmetry_space_group_name_H-M  'P 1'

loop_
_symmetry_equiv_pos_as_xyz
 'x,y,z'

loop_
_atom_site_label
_atom_site_type_symbol
_atom_site_fract_x
_atom_site_fract_y
_atom_site_fract_z
_atom_site_charge
Zn         Zn      0.37413   0.62583   0.12413   1.06903
Zn         Zn      0.12414   0.37413   0.62583   1.06907
Zn         Zn      0.62583   0.12414   0.37413   1.06914
Zn         Zn      0.87580   0.87579   0.87579   1.06404
Zn         Zn      0.42828   0.57230   0.07063   0.92505
Zn         Zn      0.07064   0.42828   0.57230   0.92509
Zn         Zn      0.57230   0.07063   0.42828   0.92521
Zn         Zn      0.92937   0.92936   0.92936   0.93062
Zn         Zn      0.32058   0.67951   0.17857   0.92961
Zn         Zn      0.17857   0.32058   0.67951   0.92947
Zn         Zn      0.82250   0.82249   0.82249   0.91507
Zn         Zn      0.67952   0.17857   0.32057   0.92961
H          H       0.31980   0.66734   0.03200   0.13281
H          H       0.35566   0.56574   0.96336   0.13342
H          H       0.25800   0.63874   0.92342   0.13031
H          H       0.17721   0.73988   0.94184   0.12601
H          H       0.13724   0.83755   0.01431   0.11656
H          H       0.19100   0.82311   0.06296   0.10969
H          H       0.23746   0.76664   0.05149   0.12193
H          H       0.17976   0.33232   0.53344   0.13259
H          H       0.14375   0.43430   0.46535   0.13263
H          H       0.24105   0.36130   0.42434   0.13103
H          H       0.32312   0.26030   0.44151   0.12889
H          H       0.36295   0.16246   0.51408   0.11464
H          H       0.30909   0.17682   0.56274   0.10948
H          H       0.26270   0.23334   0.55129   0.12058
H          H       0.67958   0.16664   0.46642   0.13327
H          H       0.64444   0.06536   0.53604   0.13360
H          H       0.74124   0.13926   0.57557   0.12794
H          H       0.82224   0.23952   0.55804   0.12881
H          H       0.86249   0.33732   0.48573   0.11687
H          H       0.80893   0.32320   0.43687   0.10970
H          H       0.76247   0.26685   0.44811   0.12130
H          H       0.82037   0.83274   0.96752   0.13395
H          H       0.85596   0.93412   0.03634   0.13142
H          H       0.75826   0.86131   0.07622   0.12794
H          H       0.67724   0.76052   0.05849   0.12818
H          H       0.63746   0.66289   0.98612   0.11640
H          H       0.69124   0.67725   0.93735   0.11001
H          H       0.73758   0.73364   0.94866   0.12203
H          H       0.03200   0.31980   0.66734   0.13300
H          H       0.96337   0.35565   0.56574   0.13321
H          H       0.92342   0.25800   0.63874   0.13027
H          H       0.94185   0.17720   0.73988   0.12577
H          H       0.01431   0.13723   0.83755   0.11666
H          H       0.06296   0.19100   0.82311   0.11005
H          H       0.05149   0.23746   0.76664   0.12199
H          H       0.53344   0.17976   0.33232   0.13290
H          H       0.46536   0.14375   0.43430   0.13268
H          H       0.42434   0.24105   0.36130   0.13079
H          H       0.44151   0.32311   0.26030   0.12852
H          H       0.51408   0.36295   0.16246   0.11458
H          H       0.56275   0.30909   0.17682   0.10980
H          H       0.55130   0.26270   0.23334   0.12087
H          H       0.46642   0.67957   0.16664   0.13310
H          H       0.53605   0.64444   0.06536   0.13381
H          H       0.57558   0.74124   0.13925   0.12952
H          H       0.55805   0.82224   0.23952   0.12904
H          H       0.48573   0.86249   0.33732   0.11651
H          H       0.43688   0.80893   0.32320   0.10949
H          H       0.44812   0.76247   0.26685   0.12134
H          H       0.96753   0.82037   0.83274   0.13351
H          H       0.03635   0.85596   0.93412   0.13130
H          H       0.07622   0.75826   0.86131   0.13002
H          H       0.05849   0.67724   0.76052   0.12847
H          H       0.98613   0.63746   0.66289   0.11666
H          H       0.93735   0.69123   0.67724   0.10958
H          H       0.94867   0.73757   0.73364   0.12127
H          H       0.66734   0.03200   0.31979   0.13293
H          H       0.56574   0.96337   0.35565   0.13286
H          H       0.63875   0.92342   0.25800   0.13050
H          H       0.73989   0.94185   0.17720   0.12580
H          H       0.83756   0.01431   0.13723   0.11685
H          H       0.82311   0.06296   0.19100   0.11000
H          H       0.76664   0.05149   0.23746   0.12176
H          H       0.33232   0.53344   0.17976   0.13257
H          H       0.43430   0.46535   0.14375   0.13290
H          H       0.36130   0.42434   0.24105   0.13082
H          H       0.26030   0.44151   0.32311   0.12887
H          H       0.16246   0.51408   0.36295   0.11442
H          H       0.17682   0.56275   0.30909   0.10941
H          H       0.23334   0.55130   0.26270   0.12088
H          H       0.16664   0.46642   0.67957   0.13334
H          H       0.06536   0.53604   0.64444   0.13048
H          H       0.13926   0.57557   0.74124   0.13070
H          H       0.23953   0.55805   0.82224   0.12871
H          H       0.33733   0.48573   0.86249   0.11680
H          H       0.32321   0.43687   0.80893   0.10983
H          H       0.26685   0.44811   0.76247   0.12141
H          H       0.83275   0.96752   0.82037   0.13356
H          H       0.93412   0.03634   0.85595   0.13288
H          H       0.86131   0.07622   0.75826   0.12824
H          H       0.76052   0.05849   0.67724   0.12848
H          H       0.66290   0.98612   0.63746   0.11647
H          H       0.67725   0.93735   0.69123   0.10960
H          H       0.73364   0.94867   0.73757   0.12159
H          H       0.41648   0.57078   0.21630   0.13394
H          H       0.31521   0.60598   0.28597   0.13230
H          H       0.38908   0.50872   0.32537   0.13130
H          H       0.48922   0.42747   0.30847   0.12787
H          H       0.58712   0.38710   0.23632   0.11655
H          H       0.57310   0.44087   0.18740   0.11012
H          H       0.51666   0.48744   0.19854   0.12155
H          H       0.08268   0.42969   0.71782   0.13362
H          H       0.18439   0.39397   0.78638   0.13008
H          H       0.11142   0.49170   0.82623   0.13133
H          H       0.01045   0.57277   0.80837   0.12854
H          H       0.91270   0.61275   0.73602   0.11650
H          H       0.92706   0.55898   0.68736   0.11005
H          H       0.98354   0.51253   0.69874   0.12159
H          H       0.91727   0.92976   0.78267   0.13295
H          H       0.81587   0.89427   0.71386   0.12947
H          H       0.88877   0.99185   0.67392   0.12798
H          H       0.98972   0.07244   0.69206   0.12849
H          H       0.08733   0.11232   0.76438   0.11661
H          H       0.07300   0.05857   0.81319   0.10988
H          H       0.01661   0.01223   0.80195   0.12106
H          H       0.58284   0.07033   0.28245   0.13361
H          H       0.68434   0.10583   0.21330   0.13032
H          H       0.61138   0.00829   0.17384   0.13113
H          H       0.51057   0.92740   0.19173   0.12552
H          H       0.41276   0.88753   0.26422   0.11636
H          H       0.42704   0.94116   0.31294   0.10979
H          H       0.48349   0.98750   0.30152   0.12194
H          H       0.07034   0.28245   0.58283   0.13387
H          H       0.10583   0.21330   0.68434   0.12988
H          H       0.00830   0.17384   0.61138   0.13096
H          H       0.92740   0.19173   0.51057   0.12509
H          H       0.88753   0.26422   0.41276   0.11653
H          H       0.94117   0.31294   0.42703   0.11009
H          H       0.98750   0.30152   0.48348   0.12211
H          H       0.92977   0.78267   0.91727   0.13265
H          H       0.89428   0.71386   0.81586   0.13014
H          H       0.99186   0.67392   0.88876   0.12804
H          H       0.07244   0.69206   0.98971   0.12857
H          H       0.11232   0.76438   0.08732   0.11653
H          H       0.05857   0.81320   0.07300   0.10985
H          H       0.01224   0.80195   0.01660   0.12105
H          H       0.42969   0.71782   0.08268   0.13372
H          H       0.39397   0.78638   0.18439   0.13301
H          H       0.49170   0.82623   0.11141   0.13154
H          H       0.57277   0.80837   0.01045   0.12854
H          H       0.61276   0.73603   0.91269   0.11725
H          H       0.55899   0.68736   0.92705   0.11013
H          H       0.51254   0.69874   0.98354   0.12113
H          H       0.57078   0.21630   0.41648   0.13379
H          H       0.60598   0.28597   0.31521   0.13264
H          H       0.50872   0.32537   0.38908   0.13112
H          H       0.42747   0.30847   0.48922   0.12804
H          H       0.38710   0.23632   0.58712   0.11620
H          H       0.44087   0.18740   0.57310   0.10986
H          H       0.48744   0.19854   0.51666   0.12165
H          H       0.78268   0.91727   0.92976   0.13323
H          H       0.71387   0.81587   0.89427   0.13018
H          H       0.67392   0.88876   0.99185   0.12739
H          H       0.69207   0.98971   0.07243   0.12847
H          H       0.76438   0.08732   0.11232   0.11653
H          H       0.81320   0.07300   0.05857   0.10994
H          H       0.80195   0.01660   0.01223   0.12136
H          H       0.28245   0.58283   0.07033   0.13387
H          H       0.21330   0.68434   0.10582   0.13016
H          H       0.17384   0.61138   0.00829   0.13097
H          H       0.19173   0.51057   0.92739   0.12503
H          H       0.26423   0.41276   0.88752   0.11671
H          H       0.31294   0.42704   0.94116   0.11023
H          H       0.30153   0.48349   0.98750   0.12196
H          H       0.21630   0.41648   0.57078   0.13366
H          H       0.28597   0.31521   0.60598   0.13249
H          H       0.32538   0.38908   0.50872   0.13160
H          H       0.30847   0.48922   0.42747   0.12648
H          H       0.23632   0.58712   0.38710   0.11640
H          H       0.18741   0.57310   0.44087   0.10973
H          H       0.19854   0.51666   0.48744   0.12135
H          H       0.71782   0.08268   0.42969   0.13351
H          H       0.78638   0.18439   0.39397   0.13321
H          H       0.82623   0.11141   0.49170   0.13145
H          H       0.80837   0.01045   0.57277   0.12867
H          H       0.73603   0.91270   0.61275   0.11664
H          H       0.68736   0.92706   0.55898   0.10988
H          H       0.69874   0.98354   0.51253   0.12127
C          C       0.31592   0.64878   0.00592  -0.12759
C          C       0.34061   0.61577   0.00051  -0.03929
C          C       0.33618   0.59121   0.96725  -0.13714
C          C       0.30636   0.59938   0.93905   0.13692
C          C       0.28134   0.63247   0.94480  -0.15649
C          C       0.28587   0.65731   0.97809   0.13571
C          C       0.37097   0.60638   0.03122   0.59201
C          C       0.25989   0.68989   0.98396  -0.10462
C          C       0.23712   0.71766   0.98917  -0.09478
C          C       0.18029   0.75808   0.96829  -0.16817
C          C       0.15350   0.78950   0.97499   0.13296
C          C       0.15795   0.81328   0.00923  -0.13013
C          C       0.18805   0.80498   0.03641  -0.08910
C          C       0.21421   0.77344   0.03014  -0.13082
C          C       0.21070   0.74975   0.99572   0.13459
C          C       0.29586   0.55181   0.87778  -0.09695
C          C       0.30094   0.57413   0.90588  -0.10428
C          C       0.18356   0.35095   0.50731  -0.12665
C          C       0.15890   0.38406   0.50217  -0.03874
C          C       0.16322   0.40878   0.46891  -0.13792
C          C       0.19286   0.40069   0.44040   0.13868
C          C       0.21784   0.36752   0.44594  -0.15827
C          C       0.21348   0.34248   0.47921   0.13459
C          C       0.12866   0.39350   0.53317   0.59449
C          C       0.23961   0.30986   0.48461  -0.10357
C          C       0.26281   0.28228   0.48903  -0.09629
C          C       0.32001   0.24204   0.46798  -0.17198
C          C       0.34686   0.21061   0.47468   0.13370
C          C       0.34230   0.18679   0.50899  -0.12849
C          C       0.31214   0.19504   0.53619  -0.08992
C          C       0.28598   0.22658   0.52991  -0.12953
C          C       0.28948   0.25029   0.49541   0.13508
C          C       0.20368   0.44800   0.37875  -0.09569
C          C       0.19827   0.42594   0.40709  -0.10601
C          C       0.68355   0.14831   0.49273  -0.12928
C          C       0.65914   0.11515   0.49842  -0.03658
C          C       0.66370   0.09092   0.53197  -0.14039
C          C       0.69335   0.09947   0.56017   0.13941
C          C       0.71807   0.13266   0.55414  -0.15491
C          C       0.71345   0.15728   0.52058   0.13646
C          C       0.62894   0.10500   0.46779   0.59264
C          C       0.73932   0.18997   0.51479  -0.10452
C          C       0.76234   0.21762   0.51028  -0.09479
C          C       0.81925   0.25779   0.53157  -0.17212
C          C       0.84610   0.28916   0.52498   0.13398
C          C       0.84178   0.31308   0.49073  -0.12945
C          C       0.81179   0.30496   0.46343  -0.08897
C          C       0.78561   0.27348   0.46958  -0.13100
C          C       0.78892   0.24964   0.50402   0.13493
C          C       0.70411   0.05217   0.62177  -0.09446
C          C       0.69890   0.07444   0.59358  -0.10673
C          C       0.81642   0.85122   0.99367  -0.12928
C          C       0.84110   0.88417  -0.00086  -0.03489
C          C       0.83656   0.90867   0.03242  -0.13815
C          C       0.80665   0.90052   0.06059   0.13783
C          C       0.78166   0.86753   0.05481  -0.15377
C          C       0.78628   0.84269   0.02150   0.13556
C          C       0.87148   0.89364   0.96836   0.59421
C          C       0.76028   0.81016   0.01576  -0.10461
C          C       0.73734   0.78252   0.01098  -0.09488
C          C       0.68035   0.74231   0.03203  -0.16996
C          C       0.65357   0.71095   0.02540   0.13145
C          C       0.65810   0.68716   0.99114  -0.12878
C          C       0.68822   0.69539   0.96389  -0.09027
C          C       0.71435   0.72687   0.97010  -0.12929
C          C       0.71082   0.75055   0.00456   0.13436
C          C       0.79629   0.94822   0.12179  -0.09552
C          C       0.80121   0.92577   0.09376  -0.10550
C          C       0.00592   0.31592   0.64878  -0.12773
C          C       0.00051   0.34061   0.61577  -0.03925
C          C       0.96725   0.33618   0.59121  -0.13693
C          C       0.93905   0.30636   0.59938   0.13669
C          C       0.94481   0.28134   0.63246  -0.15646
C          C       0.97809   0.28586   0.65731   0.13560
C          C       0.03123   0.37097   0.60638   0.59182
C          C       0.98396   0.25988   0.68989  -0.10439
C          C       0.98917   0.23711   0.71766  -0.09502
C          C       0.96830   0.18028   0.75808  -0.16839
C          C       0.97499   0.15350   0.78950   0.13308
C          C       0.00923   0.15794   0.81328  -0.13008
C          C       0.03641   0.18805   0.80498  -0.08949
C          C       0.03014   0.21421   0.77344  -0.13067
C          C       0.99572   0.21069   0.74975   0.13479
C          C       0.87779   0.29586   0.55180  -0.09700
C          C       0.90588   0.30094   0.57413  -0.10433
C          C       0.50732   0.18356   0.35095  -0.12684
C          C       0.50217   0.15890   0.38406  -0.03859
C          C       0.46891   0.16322   0.40878  -0.13794
C          C       0.44040   0.19286   0.40069   0.13861
C          C       0.44594   0.21784   0.36752  -0.15844
C          C       0.47921   0.21348   0.34248   0.13483
C          C       0.53317   0.12865   0.39350   0.59433
C          C       0.48461   0.23961   0.30986  -0.10348
C          C       0.48903   0.26280   0.28228  -0.09638
C          C       0.46798   0.32001   0.24204  -0.17166
C          C       0.47469   0.34686   0.21061   0.13347
C          C       0.50899   0.34230   0.18679  -0.12839
C          C       0.53620   0.31214   0.19504  -0.09001
C          C       0.52991   0.28597   0.22657  -0.12940
C          C       0.49541   0.28948   0.25029   0.13482
C          C       0.37875   0.20367   0.44800  -0.09575
C          C       0.40709   0.19827   0.42594  -0.10605
C          C       0.49273   0.68355   0.14831  -0.12957
C          C       0.49842   0.65914   0.11515  -0.03653
C          C       0.53197   0.66369   0.09092  -0.14037
C          C       0.56017   0.69335   0.09947   0.13932
C          C       0.55415   0.71807   0.13266  -0.15600
C          C       0.52059   0.71345   0.15728   0.13633
C          C       0.46779   0.62894   0.10500   0.59243
C          C       0.51479   0.73932   0.18997  -0.10455
C          C       0.51028   0.76233   0.21762  -0.09469
C          C       0.53157   0.81925   0.25779  -0.17192
C          C       0.52499   0.84610   0.28915   0.13419
C          C       0.49073   0.84178   0.31307  -0.12956
C          C       0.46343   0.81179   0.30496  -0.08926
C          C       0.46959   0.78561   0.27348  -0.13088
C          C       0.50403   0.78892   0.24964   0.13481
C          C       0.62177   0.70411   0.05217  -0.09441
C          C       0.59358   0.69890   0.07444  -0.10659
C          C       0.99368   0.81641   0.85122  -0.12927
C          C      -0.00086   0.84109   0.88416  -0.03495
C          C       0.03242   0.83656   0.90867  -0.13822
C          C       0.06059   0.80665   0.90052   0.13780
C          C       0.05482   0.78165   0.86753  -0.15482
C          C       0.02151   0.78628   0.84269   0.13588
C          C       0.96837   0.87147   0.89363   0.59460
C          C       0.01577   0.76028   0.81016  -0.10481
C          C       0.01098   0.73734   0.78252  -0.09475
C          C       0.03204   0.68035   0.74231  -0.16996
C          C       0.02540   0.65356   0.71095   0.13164
C          C       0.99115   0.65810   0.68716  -0.12851
C          C       0.96390   0.68822   0.69539  -0.09021
C          C       0.97011   0.71434   0.72687  -0.12959
C          C       0.00456   0.71082   0.75055   0.13459
C          C       0.12180   0.79629   0.94822  -0.09521
C          C       0.09376   0.80120   0.92576  -0.10587
C          C       0.64878   0.00592   0.31592  -0.12770
C          C       0.61578   0.00051   0.34060  -0.03909
C          C       0.59122   0.96725   0.33618  -0.13725
C          C       0.59938   0.93905   0.30636   0.13692
C          C       0.63247   0.94480   0.28134  -0.15609
C          C       0.65731   0.97809   0.28586   0.13546
C          C       0.60638   0.03122   0.37097   0.59201
C          C       0.68990   0.98396   0.25988  -0.10458
C          C       0.71766   0.98917   0.23711  -0.09483
C          C       0.75808   0.96830   0.18028  -0.16849
C          C       0.78951   0.97499   0.15350   0.13329
C          C       0.81328   0.00923   0.15794  -0.12990
C          C       0.80498   0.03641   0.18805  -0.08953
C          C       0.77344   0.03014   0.21421  -0.13082
C          C       0.74976   0.99572   0.21069   0.13491
C          C       0.55181   0.87778   0.29586  -0.09702
C          C       0.57413   0.90588   0.30094  -0.10434
C          C       0.35095   0.50731   0.18355  -0.12685
C          C       0.38406   0.50217   0.15890  -0.03842
C          C       0.40878   0.46891   0.16322  -0.13791
C          C       0.40069   0.44040   0.19286   0.13872
C          C       0.36752   0.44594   0.21784  -0.15846
C          C       0.34248   0.47921   0.21348   0.13455
C          C       0.39351   0.53317   0.12865   0.59422
C          C       0.30986   0.48461   0.23961  -0.10325
C          C       0.28228   0.48903   0.26280  -0.09644
C          C       0.24204   0.46798   0.32001  -0.17177
C          C       0.21062   0.47469   0.34686   0.13356
C          C       0.18679   0.50899   0.34230  -0.12855
C          C       0.19504   0.53619   0.31214  -0.08993
C          C       0.22658   0.52991   0.28597  -0.12948
C          C       0.25030   0.49541   0.28948   0.13488
C          C       0.44800   0.37875   0.20367  -0.09560
C          C       0.42594   0.40709   0.19827  -0.10608
C          C       0.14832   0.49273   0.68355  -0.12925
C          C       0.11516   0.49842   0.65914  -0.03634
C          C       0.09092   0.53197   0.66369  -0.13781
C          C       0.09947   0.56017   0.69335   0.13947
C          C       0.13267   0.55414   0.71806  -0.15766
C          C       0.15728   0.52058   0.71345   0.13664
C          C       0.10500   0.46779   0.62894   0.59242
C          C       0.18997   0.51479   0.73932  -0.10487
C          C       0.21763   0.51028   0.76233  -0.09457
C          C       0.25780   0.53157   0.81925  -0.17217
C          C       0.28916   0.52499   0.84610   0.13407
C          C       0.31308   0.49073   0.84178  -0.12947
C          C       0.30497   0.46343   0.81179  -0.08884
C          C       0.27348   0.46959   0.78561  -0.13090
C          C       0.24965   0.50402   0.78892   0.13488
C          C       0.05218   0.62177   0.70411  -0.09420
C          C       0.07445   0.59358   0.69890  -0.10674
C          C       0.85123   0.99367   0.81641  -0.12941
C          C       0.88417  -0.00086   0.84109  -0.03522
C          C       0.90868   0.03242   0.83656  -0.13948
C          C       0.90053   0.06059   0.80664   0.13786
C          C       0.86753   0.05482   0.78165  -0.15373
C          C       0.84269   0.02150   0.78628   0.13587
C          C       0.89364   0.96836   0.87147   0.59471
C          C       0.81016   0.01576   0.76028  -0.10473
C          C       0.78253   0.01098   0.73734  -0.09484
C          C       0.74231   0.03204   0.68035  -0.17018
C          C       0.71095   0.02540   0.65356   0.13195
C          C       0.68716   0.99115   0.65810  -0.12893
C          C       0.69540   0.96390   0.68822  -0.09026
C          C       0.72688   0.97010   0.71434  -0.12944
C          C       0.75055   0.00456   0.71082   0.13454
C          C       0.94822   0.12179   0.79629  -0.09540
C          C       0.92577   0.09376   0.80120  -0.10569
C          C       0.39818   0.56674   0.24261  -0.13078
C          C       0.36514   0.59139   0.24834  -0.03701
C          C       0.34078   0.58668   0.28181  -0.13803
C          C       0.34927   0.55679   0.30995   0.13808
C          C       0.38248   0.53201   0.30396  -0.15866
C          C       0.40711   0.53670   0.27043   0.13743
C          C       0.35561   0.62207   0.21778   0.59390
C          C       0.43982   0.51077   0.26475  -0.10377
C          C       0.46743   0.48758   0.26055  -0.09578
C          C       0.50754   0.43046   0.28202  -0.17143
C          C       0.53892   0.40354   0.27549   0.13268
C          C       0.56287   0.40788   0.24125  -0.12923
C          C       0.55480   0.43797   0.21391  -0.08935
C          C       0.52330   0.46422   0.22001  -0.13096
C          C       0.49943   0.46087   0.25443   0.13577
C          C       0.30226   0.54573   0.37174  -0.09514
C          C       0.32432   0.55111   0.34340  -0.10646
C          C       0.10125   0.43361   0.74388  -0.12965
C          C       0.13425   0.40890   0.74929  -0.03522
C          C       0.15888   0.41340   0.78249  -0.13778
C          C       0.15075   0.44329   0.81064   0.13889
C          C       0.11767   0.46831   0.80488  -0.15795
C          C       0.09277   0.46373   0.77165   0.13617
C          C       0.14355   0.37849   0.71854   0.59527
C          C       0.06018   0.48975   0.76587  -0.10541
C          C       0.03251   0.51270   0.76096  -0.09414
C          C       0.99224   0.56969   0.78193  -0.17074
C          C       0.96082   0.59650   0.77527   0.13216
C          C       0.93699   0.59205   0.74106  -0.12980
C          C       0.94524   0.56195   0.71387  -0.09027
C          C       0.97678   0.53578   0.72010  -0.13006
C          C       0.00049   0.53926   0.75450   0.13446
C          C       0.19819   0.45409   0.87195  -0.09635
C          C       0.17597   0.44880   0.84382  -0.10520
C          C       0.89877   0.93379   0.75655  -0.12922
C          C       0.86578   0.90921   0.75114  -0.03506
C          C       0.84130   0.91370   0.71781  -0.13562
C          C       0.84951   0.94354   0.68959   0.13759
C          C       0.88253   0.96850   0.69536  -0.15435
C          C       0.90736   0.96386   0.72867   0.13544
C          C       0.85618   0.87888   0.78190   0.59223
C          C       0.93996   0.98973   0.73447  -0.10437
C          C       0.96766   0.01250   0.73956  -0.09501
C          C       0.00792   0.06936   0.71852  -0.17057
C          C       0.03929   0.09612   0.72511   0.13321
C          C       0.06308   0.09166   0.75938  -0.12990
C          C       0.05483   0.06158   0.78666  -0.09003
C          C       0.02333   0.03546   0.78050  -0.13043
C          C      -0.00034   0.03895   0.74605   0.13455
C          C       0.80202   0.95400   0.62824  -0.09509
C          C       0.82434   0.94897   0.65635  -0.10597
C          C       0.60134   0.06635   0.25628  -0.12992
C          C       0.63433   0.09098   0.25067  -0.03517
C          C       0.65886   0.08645   0.21734  -0.13705
C          C       0.65068   0.05660   0.18924   0.13809
C          C       0.61765   0.03164   0.19518  -0.15727
C          C       0.59279   0.03625   0.22854   0.13597
C          C       0.64379   0.12125   0.28143   0.59336
C          C       0.56021   0.01029   0.23439  -0.10411
C          C       0.53254   0.98738   0.23919  -0.09534
C          C       0.49231   0.93046   0.21820  -0.16790
C          C       0.46093   0.90368   0.22490   0.13331
C          C       0.43705   0.90816   0.25917  -0.12980
C          C       0.44525   0.93821   0.28638  -0.08989
C          C       0.47676   0.96433   0.28011  -0.13094
C          C       0.50051   0.96087   0.24564   0.13572
C          C       0.69826   0.04610   0.12783  -0.09588
C          C       0.67588   0.05113   0.15596  -0.10562
C          C       0.06635   0.25628   0.60134  -0.12982
C          C       0.09098   0.25067   0.63433  -0.03503
C          C       0.08646   0.21734   0.65886  -0.13651
C          C       0.05660   0.18924   0.65067   0.13804
C          C       0.03164   0.19518   0.61764  -0.15729
C          C       0.03625   0.22855   0.59279   0.13578
C          C       0.12125   0.28143   0.64379   0.59325
C          C       0.01029   0.23439   0.56021  -0.10384
C          C       0.98738   0.23919   0.53253  -0.09572
C          C       0.93047   0.21820   0.49231  -0.16803
C          C       0.90369   0.22490   0.46092   0.13321
C          C       0.90816   0.25917   0.43705  -0.12972
C          C       0.93821   0.28638   0.44524  -0.08982
C          C       0.96433   0.28011   0.47675  -0.13083
C          C       0.96087   0.24564   0.50051   0.13599
C          C       0.04610   0.12783   0.69826  -0.09568
C          C       0.05114   0.15597   0.67588  -0.10574
C          C       0.93380   0.75655   0.89876  -0.12920
C          C       0.90922   0.75114   0.86577  -0.03531
C          C       0.91370   0.71781   0.84129  -0.13637
C          C       0.94354   0.68959   0.84950   0.13780
C          C       0.96851   0.69536   0.88252  -0.15429
C          C       0.96386   0.72867   0.90735   0.13514
C          C       0.87888   0.78190   0.85618   0.59242
C          C       0.98973   0.73447   0.93995  -0.10399
C          C       0.01250   0.73956   0.96765  -0.09564
C          C       0.06936   0.71852   0.00792  -0.17069
C          C       0.09612   0.72511   0.03929   0.13333
C          C       0.09166   0.75938   0.06308  -0.12996
C          C       0.06158   0.78666   0.05483  -0.09012
C          C       0.03546   0.78050   0.02333  -0.13051
C          C       0.03896   0.74605  -0.00035   0.13487
C          C       0.95401   0.62824   0.80201  -0.09447
C          C       0.94897   0.65635   0.82433  -0.10648
C          C       0.43361   0.74388   0.10125  -0.12837
C          C       0.40890   0.74929   0.13425  -0.03931
C          C       0.41340   0.78249   0.15888  -0.13943
C          C       0.44330   0.81064   0.15074   0.13905
C          C       0.46832   0.80488   0.11767  -0.15787
C          C       0.46373   0.77165   0.09277   0.13638
C          C       0.37850   0.71854   0.14355   0.59637
C          C       0.48975   0.76588   0.06018  -0.10555
C          C       0.51270   0.76096   0.03251  -0.09407
C          C       0.56970   0.78193   0.99223  -0.17106
C          C       0.59650   0.77527   0.96081   0.13232
C          C       0.59206   0.74106   0.93698  -0.12959
C          C       0.56195   0.71387   0.94523  -0.09010
C          C       0.53578   0.72010   0.97677  -0.13045
C          C       0.53926   0.75451   0.00049   0.13442
C          C       0.45409   0.87195   0.19818  -0.09656
C          C       0.44880   0.84382   0.17596  -0.10524
C          C       0.56675   0.24261   0.39818  -0.13112
C          C       0.59139   0.24834   0.36513  -0.03666
C          C       0.58668   0.28181   0.34077  -0.13808
C          C       0.55679   0.30995   0.34927   0.13850
C          C       0.53201   0.30396   0.38248  -0.15887
C          C       0.53670   0.27043   0.40710   0.13766
C          C       0.62207   0.21778   0.35561   0.59383
C          C       0.51077   0.26475   0.43982  -0.10367
C          C       0.48758   0.26055   0.46743  -0.09610
C          C       0.43046   0.28202   0.50753  -0.17121
C          C       0.40354   0.27549   0.53892   0.13250
C          C       0.40789   0.24125   0.56287  -0.12940
C          C       0.43797   0.21391   0.55480  -0.08933
C          C       0.46422   0.22001   0.52330  -0.13083
C          C       0.46087   0.25443   0.49943   0.13586
C          C       0.54573   0.37174   0.30226  -0.09484
C          C       0.55111   0.34340   0.32431  -0.10683
C          C       0.75656   0.89877   0.93379  -0.12910
C          C       0.75115   0.86577   0.90921  -0.03507
C          C       0.71782   0.84130   0.91370  -0.13598
C          C       0.68960   0.84950   0.94354   0.13756
C          C       0.69537   0.88252   0.96850  -0.15441
C          C       0.72868   0.90735   0.96386   0.13487
C          C       0.78190   0.85618   0.87888   0.59186
C          C       0.73447   0.93995   0.98973  -0.10372
C          C       0.73957   0.96766   0.01250  -0.09579
C          C       0.71852   0.00792   0.06936  -0.17107
C          C       0.72511   0.03929   0.09612   0.13345
C          C       0.75938   0.06308   0.09165  -0.13031
C          C       0.78667   0.05483   0.06157  -0.08976
C          C       0.78050   0.02333   0.03546  -0.13058
C          C       0.74605  -0.00035   0.03895   0.13502
C          C       0.62824   0.80201   0.95400  -0.09507
C          C       0.65636   0.82434   0.94897  -0.10595
C          C       0.25628   0.60134   0.06635  -0.12984
C          C       0.25068   0.63433   0.09098  -0.03499
C          C       0.21734   0.65886   0.08645  -0.13723
C          C       0.18924   0.65068   0.05660   0.13795
C          C       0.19518   0.61765   0.03164  -0.15709
C          C       0.22855   0.59279   0.03625   0.13584
C          C       0.28143   0.64379   0.12125   0.59326
C          C       0.23439   0.56021   0.01029  -0.10413
C          C       0.23919   0.53253   0.98737  -0.09563
C          C       0.21821   0.49231   0.93046  -0.16802
C          C       0.22491   0.46092   0.90368   0.13306
C          C       0.25917   0.43705   0.90816  -0.12972
C          C       0.28638   0.44524   0.93821  -0.08979
C          C       0.28012   0.47676   0.96433  -0.13064
C          C       0.24564   0.50051   0.96087   0.13575
C          C       0.12783   0.69826   0.04610  -0.09584
C          C       0.15597   0.67588   0.05113  -0.10566
C          C       0.24262   0.39818   0.56674  -0.13106
C          C       0.24835   0.36514   0.59139  -0.03672
C          C       0.28181   0.34077   0.58668  -0.13831
C          C       0.30995   0.34927   0.55678   0.13861
C          C       0.30396   0.38248   0.53201  -0.15886
C          C       0.27043   0.40711   0.53670   0.13735
C          C       0.21778   0.35561   0.62207   0.59414
C          C       0.26475   0.43982   0.51077  -0.10359
C          C       0.26055   0.46743   0.48758  -0.09586
C          C       0.28202   0.50753   0.43045  -0.16959
C          C       0.27549   0.53892   0.40354   0.13280
C          C       0.24125   0.56287   0.40788  -0.12919
C          C       0.21392   0.55480   0.43797  -0.08945
C          C       0.22002   0.52330   0.46421  -0.13107
C          C       0.25443   0.49943   0.46087   0.13582
C          C       0.37174   0.30226   0.54573  -0.09461
C          C       0.34340   0.32431   0.55111  -0.10704
C          C       0.74389   0.10125   0.43361  -0.12962
C          C       0.74929   0.13425   0.40890  -0.03542
C          C       0.78250   0.15888   0.41340  -0.14047
C          C       0.81065   0.15074   0.44329   0.13924
C          C       0.80488   0.11767   0.46831  -0.15800
C          C       0.77165   0.09277   0.46373   0.13624
C          C       0.71854   0.14355   0.37849   0.59529
C          C       0.76588   0.06018   0.48975  -0.10540
C          C       0.76096   0.03251   0.51270  -0.09411
C          C       0.78194   0.99224   0.56969  -0.17061
C          C       0.77528   0.96081   0.59650   0.13263
C          C       0.74107   0.93699   0.59205  -0.12971
C          C       0.71388   0.94524   0.56195  -0.09042
C          C       0.72011   0.97677   0.53578  -0.13002
C          C       0.75451   0.00049   0.53925   0.13431
C          C       0.87196   0.19818   0.45409  -0.09624
C          C       0.84382   0.17596   0.44880  -0.10547
O          O       0.37485   0.62885   0.06125  -0.57536
O          O       0.39275   0.57515   0.02554  -0.53447
O          O       0.12500   0.37093   0.56317  -0.57298
O          O       0.10698   0.42483   0.52762  -0.53917
O          O       0.62508   0.12690   0.43727  -0.57591
O          O       0.60735   0.07373   0.47405  -0.53682
O          O       0.87508   0.87120   0.93830  -0.57273
O          O       0.89322   0.92482   0.97414  -0.53882
O          O       0.06125   0.37485   0.62885  -0.57521
O          O       0.02554   0.39275   0.57515  -0.53448
O          O       0.56317   0.12499   0.37093  -0.57262
O          O       0.52762   0.10698   0.42483  -0.53939
O          O       0.43727   0.62508   0.12690  -0.57596
O          O       0.47405   0.60735   0.07373  -0.53626
O          O       0.93831   0.87507   0.87120  -0.57311
O          O       0.97415   0.89322   0.92482  -0.53883
O          O       0.62886   0.06125   0.37485  -0.57518
O          O       0.57515   0.02554   0.39275  -0.53476
O          O       0.37093   0.56317   0.12499  -0.57292
O          O       0.42483   0.52762   0.10698  -0.53890
O          O       0.12691   0.43727   0.62508  -0.57561
O          O       0.07374   0.47405   0.60735  -0.53644
O          O       0.87121   0.93831   0.87507  -0.57355
O          O       0.92482   0.97414   0.89322  -0.53868
O          O       0.37714   0.62503   0.18695  -0.57418
O          O       0.32527   0.64486   0.22444  -0.53966
O          O       0.12106   0.37496   0.68851  -0.57637
O          O       0.17469   0.35661   0.72430  -0.53829
O          O       0.87830   0.87514   0.81226  -0.57559
O          O       0.82521   0.85699   0.77595  -0.53385
O          O       0.62136   0.12486   0.31154  -0.57320
O          O       0.67500   0.14299   0.27564  -0.53848
O          O       0.12486   0.31154   0.62136  -0.57295
O          O       0.14299   0.27564   0.67500  -0.53860
O          O       0.87514   0.81226   0.87829  -0.57622
O          O       0.85699   0.77595   0.82521  -0.53352
O          O       0.37496   0.68851   0.12106  -0.57605
O          O       0.35661   0.72430   0.17469  -0.53880
O          O       0.62503   0.18695   0.37714  -0.57454
O          O       0.64486   0.22444   0.32526  -0.53920
O          O       0.81227   0.87829   0.87514  -0.57555
O          O       0.77595   0.82521   0.85699  -0.53377
O          O       0.31154   0.62136   0.12486  -0.57285
O          O       0.27564   0.67500   0.14299  -0.53883
O          O       0.18695   0.37714   0.62503  -0.57473
O          O       0.22444   0.32527   0.64486  -0.53931
O          O       0.68852   0.12106   0.37496  -0.57642
O          O       0.72430   0.17469   0.35661  -0.53854

