data_crystal

_audit_creation_method 'AiiDA-DDEC plugin'

_cell_length_a        33.64026
_cell_length_b        33.64026
_cell_length_c        33.64026

_cell_angle_alpha     90.00000
_cell_angle_beta     90.00000
_cell_angle_gamma     90.00000

_symmetry_space_group_name_Hall 'P 1'
_symmetry_space_group_name_H-M  'P 1'

loop_
_symmetry_equiv_pos_as_xyz
 'x,y,z'

loop_
_atom_site_label
_atom_site_type_symbol
_atom_site_fract_x
_atom_site_fract_y
_atom_site_fract_z
_atom_site_charge
Cu         Cu      0.03644   0.75013   0.24981   0.91778
Cu         Cu      0.46348   0.75012   0.24964   0.91690
Cu         Cu      0.24981   0.03644   0.75013   0.91777
Cu         Cu      0.24963   0.46348   0.75012   0.91705
Cu         Cu      0.75013   0.24981   0.03644   0.91780
Cu         Cu      0.75012   0.24964   0.46348   0.91687
Cu         Cu      0.24984   0.96356   0.75040   0.91874
Cu         Cu      0.24990   0.53652   0.75015   0.91745
Cu         Cu      0.96356   0.75040   0.24984   0.91870
Cu         Cu      0.53652   0.75015   0.24990   0.91742
Cu         Cu      0.75014   0.24990   0.53652   0.91749
Cu         Cu      0.75040   0.24984   0.96356   0.91853
Cu         Cu      0.75016   0.03644   0.24960   0.91871
Cu         Cu      0.75010   0.46348   0.24985   0.91747
Cu         Cu      0.03644   0.24960   0.75016   0.91865
Cu         Cu      0.46348   0.24985   0.75010   0.91748
Cu         Cu      0.24985   0.75010   0.46348   0.91739
Cu         Cu      0.24960   0.75016   0.03644   0.91868
Cu         Cu      0.96356   0.24987   0.75019   0.91784
Cu         Cu      0.53651   0.24988   0.75036   0.91694
Cu         Cu      0.75018   0.96356   0.24987   0.91786
Cu         Cu      0.75036   0.53652   0.24988   0.91686
Cu         Cu      0.24987   0.75018   0.96356   0.91773
Cu         Cu      0.24987   0.75036   0.53652   0.91694
H          H       0.91780   0.96771   0.02210   0.10865
H          H       0.90799   0.90361   0.03730   0.11336
H          H       0.91191   0.85882   0.09531   0.11280
H          H       0.03983   0.86131   0.08843   0.11106
H          H       0.03606   0.90648   0.03151   0.10407
H          H       0.94747   0.82341   0.14404   0.12350
H          H       0.03893   0.82382   0.14155   0.13558
H          H       0.58220   0.53228   0.02210   0.10776
H          H       0.59201   0.59639   0.03728   0.11398
H          H       0.58813   0.64117   0.09528   0.11296
H          H       0.46020   0.63870   0.08844   0.11399
H          H       0.46395   0.59353   0.03153   0.10441
H          H       0.55256   0.67663   0.14406   0.11879
H          H       0.46114   0.67614   0.14155   0.13487
H          H       0.58218   0.96771   0.47790   0.10844
H          H       0.59200   0.90361   0.46272   0.11445
H          H       0.58812   0.85884   0.40471   0.11177
H          H       0.46018   0.86130   0.41155   0.11444
H          H       0.46394   0.90647   0.46847   0.10387
H          H       0.55255   0.82339   0.35593   0.12278
H          H       0.46115   0.82378   0.35839   0.13451
H          H       0.91780   0.53229   0.47789   0.10810
H          H       0.90799   0.59639   0.46270   0.11782
H          H       0.91189   0.64117   0.40470   0.11175
H          H       0.03982   0.63869   0.41156   0.11298
H          H       0.03605   0.59352   0.46847   0.10372
H          H       0.94741   0.67662   0.35595   0.12296
H          H       0.03880   0.67625   0.35831   0.13517
H          H       0.02209   0.91780   0.96771   0.10815
H          H       0.03729   0.90799   0.90361   0.11357
H          H       0.09530   0.91191   0.85882   0.11262
H          H       0.08843   0.03983   0.86131   0.11106
H          H       0.03151   0.03606   0.90648   0.10413
H          H       0.14404   0.94747   0.82341   0.11916
H          H       0.14155   0.03893   0.82383   0.13572
H          H       0.02210   0.58220   0.53228   0.10775
H          H       0.03728   0.59201   0.59639   0.11404
H          H       0.09528   0.58813   0.64117   0.11285
H          H       0.08844   0.46020   0.63870   0.11389
H          H       0.03153   0.46395   0.59353   0.10464
H          H       0.14406   0.55256   0.67663   0.11922
H          H       0.14155   0.46114   0.67614   0.13512
H          H       0.47790   0.58218   0.96771   0.10879
H          H       0.46272   0.59200   0.90361   0.11452
H          H       0.40470   0.58812   0.85884   0.11184
H          H       0.41155   0.46018   0.86130   0.11434
H          H       0.46847   0.46394   0.90647   0.10368
H          H       0.35592   0.55255   0.82339   0.12291
H          H       0.35839   0.46115   0.82378   0.13426
H          H       0.47789   0.91780   0.53229   0.10828
H          H       0.46270   0.90799   0.59640   0.11762
H          H       0.40469   0.91189   0.64117   0.11186
H          H       0.41156   0.03982   0.63869   0.11326
H          H       0.46847   0.03605   0.59352   0.10364
H          H       0.35594   0.94741   0.67662   0.12313
H          H       0.35831   0.03880   0.67626   0.13511
H          H       0.96771   0.02210   0.91780   0.10814
H          H       0.90360   0.03729   0.90799   0.11329
H          H       0.85882   0.09530   0.91191   0.11251
H          H       0.86131   0.08843   0.03983   0.11129
H          H       0.90648   0.03151   0.03606   0.10423
H          H       0.82341   0.14404   0.94747   0.11908
H          H       0.82382   0.14155   0.03893   0.13576
H          H       0.53228   0.02210   0.58220   0.10789
H          H       0.59639   0.03728   0.59202   0.11416
H          H       0.64116   0.09528   0.58813   0.11297
H          H       0.63870   0.08844   0.46020   0.11377
H          H       0.59353   0.03153   0.46395   0.10436
H          H       0.67662   0.14406   0.55256   0.11885
H          H       0.67614   0.14155   0.46115   0.13485
H          H       0.96770   0.47790   0.58219   0.10877
H          H       0.90361   0.46272   0.59200   0.11461
H          H       0.85883   0.40471   0.58812   0.11195
H          H       0.86130   0.41155   0.46019   0.11427
H          H       0.90646   0.46847   0.46394   0.10361
H          H       0.82339   0.35593   0.55256   0.12302
H          H       0.82378   0.35839   0.46116   0.13416
H          H       0.53229   0.47789   0.91781   0.10812
H          H       0.59639   0.46270   0.90799   0.11760
H          H       0.64117   0.40469   0.91189   0.11149
H          H       0.63869   0.41156   0.03982   0.11322
H          H       0.59352   0.46847   0.03605   0.10385
H          H       0.67661   0.35594   0.94741   0.12274
H          H       0.67625   0.35831   0.03880   0.13526
H          H       0.03230   0.08219   0.52211   0.10817
H          H       0.09640   0.09200   0.53730   0.11416
H          H       0.14117   0.08809   0.59531   0.11371
H          H       0.13869   0.96017   0.58844   0.11359
H          H       0.09352   0.96394   0.53152   0.10353
H          H       0.17660   0.05256   0.64405   0.11831
H          H       0.17625   0.96114   0.64165   0.13540
H          H       0.46771   0.41781   0.52211   0.10832
H          H       0.40361   0.40799   0.53728   0.11376
H          H       0.35884   0.41186   0.59528   0.11215
H          H       0.36130   0.53980   0.58845   0.11448
H          H       0.40646   0.53605   0.53154   0.10453
H          H       0.32337   0.44741   0.64407   0.11936
H          H       0.32377   0.53878   0.64165   0.13429
H          H       0.03228   0.41781   0.97791   0.10729
H          H       0.09639   0.40799   0.96272   0.11522
H          H       0.14116   0.41188   0.90471   0.11238
H          H       0.13869   0.53981   0.91156   0.11311
H          H       0.09353   0.53606   0.96848   0.10325
H          H       0.17660   0.44748   0.85594   0.11926
H          H       0.17613   0.53892   0.85851   0.13472
H          H       0.46771   0.08220   0.97790   0.10877
H          H       0.40360   0.09201   0.96271   0.11426
H          H       0.35882   0.08810   0.90470   0.11120
H          H       0.36130   0.96018   0.91157   0.11432
H          H       0.40648   0.96395   0.96848   0.10391
H          H       0.32338   0.05256   0.85596   0.11987
H          H       0.32382   0.96113   0.85841   0.13592
H          H       0.08220   0.97789   0.46771   0.10881
H          H       0.09201   0.96270   0.40361   0.11424
H          H       0.08810   0.90470   0.35882   0.11106
H          H       0.96018   0.91157   0.36131   0.11434
H          H       0.96395   0.96848   0.40648   0.10399
H          H       0.05256   0.85596   0.32339   0.11984
H          H       0.96113   0.85841   0.32383   0.13595
H          H       0.41781   0.97791   0.03229   0.10731
H          H       0.40799   0.96272   0.09639   0.11520
H          H       0.41188   0.90471   0.14117   0.11248
H          H       0.53981   0.91156   0.13870   0.11311
H          H       0.53606   0.96848   0.09353   0.10309
H          H       0.44748   0.85594   0.17661   0.11932
H          H       0.53892   0.85851   0.17613   0.13464
H          H       0.41781   0.52211   0.46772   0.10830
H          H       0.40799   0.53728   0.40361   0.11393
H          H       0.41186   0.59528   0.35884   0.11214
H          H       0.53980   0.58845   0.36130   0.11431
H          H       0.53604   0.53154   0.40647   0.10446
H          H       0.44740   0.64407   0.32337   0.11938
H          H       0.53878   0.64165   0.32378   0.13430
H          H       0.08219   0.52211   0.03230   0.10817
H          H       0.09200   0.53730   0.09640   0.11403
H          H       0.08809   0.59531   0.14117   0.11372
H          H       0.96017   0.58844   0.13869   0.11361
H          H       0.96394   0.53152   0.09352   0.10348
H          H       0.05256   0.64405   0.17660   0.11835
H          H       0.96114   0.64165   0.17625   0.13539
H          H       0.97790   0.03229   0.41781   0.10733
H          H       0.96272   0.09639   0.40799   0.11507
H          H       0.90471   0.14117   0.41188   0.11225
H          H       0.91156   0.13869   0.53981   0.11331
H          H       0.96848   0.09353   0.53606   0.10329
H          H       0.85594   0.17661   0.44748   0.11914
H          H       0.85851   0.17613   0.53893   0.13477
H          H       0.97789   0.46771   0.08220   0.10880
H          H       0.96270   0.40361   0.09202   0.11705
H          H       0.90470   0.35882   0.08810   0.11127
H          H       0.91157   0.36131   0.96019   0.11415
H          H       0.96848   0.40648   0.96395   0.10372
H          H       0.85596   0.32339   0.05256   0.12348
H          H       0.85840   0.32383   0.96113   0.13564
H          H       0.52211   0.03230   0.08219   0.10823
H          H       0.53730   0.09640   0.09200   0.11428
H          H       0.59531   0.14117   0.08810   0.11385
H          H       0.58843   0.13869   0.96017   0.11345
H          H       0.53152   0.09352   0.96394   0.10345
H          H       0.64405   0.17660   0.05256   0.11842
H          H       0.64165   0.17625   0.96114   0.13532
H          H       0.52210   0.46772   0.41781   0.10795
H          H       0.53728   0.40361   0.40799   0.11373
H          H       0.59528   0.35884   0.41186   0.11205
H          H       0.58845   0.36130   0.53980   0.11448
H          H       0.53154   0.40647   0.53605   0.10463
H          H       0.64407   0.32337   0.44741   0.11873
H          H       0.64164   0.32378   0.53878   0.13453
H          H       0.96770   0.91781   0.47789   0.10823
H          H       0.90360   0.90800   0.46270   0.11416
H          H       0.85882   0.91190   0.40469   0.11386
H          H       0.86131   0.03983   0.41156   0.11352
H          H       0.90648   0.03606   0.46848   0.10344
H          H       0.82340   0.94744   0.35595   0.11847
H          H       0.82375   0.03886   0.35835   0.13522
H          H       0.53228   0.58219   0.47789   0.10812
H          H       0.59638   0.59201   0.46272   0.11373
H          H       0.64116   0.58814   0.40472   0.11195
H          H       0.63870   0.46020   0.41155   0.11454
H          H       0.59353   0.46395   0.46846   0.10455
H          H       0.67663   0.55259   0.35593   0.11925
H          H       0.67622   0.46122   0.35835   0.13453
H          H       0.96771   0.58219   0.02210   0.10727
H          H       0.90361   0.59201   0.03728   0.11509
H          H       0.85883   0.58812   0.09529   0.11234
H          H       0.86130   0.46019   0.08844   0.11323
H          H       0.90647   0.46394   0.03152   0.10319
H          H       0.82339   0.55252   0.14406   0.11920
H          H       0.82386   0.46107   0.14149   0.13472
H          H       0.53228   0.91780   0.02211   0.10886
H          H       0.59639   0.90798   0.03730   0.11696
H          H       0.64117   0.91190   0.09530   0.11112
H          H       0.63869   0.03982   0.08843   0.11416
H          H       0.59352   0.03605   0.03152   0.10387
H          H       0.67661   0.94744   0.14404   0.12340
H          H       0.67617   0.03887   0.14159   0.13572
H          H       0.91780   0.02210   0.53229   0.10892
H          H       0.90798   0.03729   0.59640   0.11458
H          H       0.91190   0.09530   0.64118   0.11136
H          H       0.03981   0.08843   0.63869   0.11410
H          H       0.03605   0.03152   0.59352   0.10383
H          H       0.94744   0.14404   0.67661   0.12352
H          H       0.03887   0.14159   0.67617   0.13566
H          H       0.58219   0.02209   0.96771   0.10676
H          H       0.59201   0.03728   0.90361   0.11502
H          H       0.58811   0.09529   0.85883   0.11204
H          H       0.46019   0.08843   0.86130   0.11330
H          H       0.46394   0.03152   0.90647   0.10351
H          H       0.55252   0.14406   0.82339   0.11899
H          H       0.46107   0.14149   0.82387   0.13497
H          H       0.58219   0.47789   0.53228   0.10816
H          H       0.59201   0.46272   0.59639   0.11342
H          H       0.58814   0.40471   0.64116   0.11193
H          H       0.46020   0.41155   0.63870   0.11476
H          H       0.46395   0.46846   0.59353   0.10461
H          H       0.55259   0.35593   0.67663   0.11876
H          H       0.46122   0.35835   0.67622   0.13451
H          H       0.91781   0.47789   0.96770   0.10843
H          H       0.90800   0.46270   0.90360   0.11453
H          H       0.91190   0.40469   0.85883   0.11395
H          H       0.03983   0.41156   0.86131   0.11339
H          H       0.03606   0.46848   0.90648   0.10318
H          H       0.94744   0.35594   0.82340   0.11866
H          H       0.03886   0.35835   0.82375   0.13492
H          H       0.02209   0.96771   0.58219   0.10713
H          H       0.03728   0.90361   0.59201   0.11522
H          H       0.09528   0.85883   0.58812   0.11214
H          H       0.08843   0.86130   0.46019   0.11313
H          H       0.03152   0.90647   0.46394   0.10333
H          H       0.14406   0.82339   0.55252   0.11909
H          H       0.14149   0.82386   0.46107   0.13481
H          H       0.02210   0.53228   0.91780   0.10856
H          H       0.03729   0.59639   0.90798   0.11444
H          H       0.09530   0.64117   0.91190   0.11097
H          H       0.08843   0.63869   0.03982   0.11410
H          H       0.03152   0.59352   0.03605   0.10393
H          H       0.14404   0.67661   0.94744   0.12326
H          H       0.14159   0.67617   0.03887   0.13588
H          H       0.47789   0.96770   0.91781   0.10834
H          H       0.46270   0.90360   0.90800   0.11399
H          H       0.40469   0.85882   0.91191   0.11393
H          H       0.41156   0.86131   0.03983   0.11368
H          H       0.46848   0.90648   0.03606   0.10332
H          H       0.35594   0.82340   0.94744   0.11852
H          H       0.35835   0.82375   0.03886   0.13517
H          H       0.47789   0.53228   0.58219   0.10841
H          H       0.46272   0.59639   0.59201   0.11378
H          H       0.40471   0.64116   0.58814   0.11200
H          H       0.41155   0.63870   0.46020   0.11463
H          H       0.46846   0.59353   0.46395   0.10447
H          H       0.35593   0.67663   0.55259   0.12313
H          H       0.35835   0.67622   0.46122   0.13426
H          H       0.08219   0.03229   0.97790   0.10830
H          H       0.09200   0.09639   0.96270   0.11319
H          H       0.08809   0.14117   0.90470   0.11236
H          H       0.96017   0.13869   0.91157   0.11173
H          H       0.96394   0.09352   0.96849   0.10448
H          H       0.05253   0.17659   0.85596   0.12318
H          H       0.96107   0.17617   0.85845   0.13590
H          H       0.41780   0.46772   0.97790   0.10794
H          H       0.40798   0.40361   0.96272   0.11439
H          H       0.41187   0.35883   0.90472   0.11334
H          H       0.53979   0.36130   0.91156   0.11359
H          H       0.53605   0.40647   0.96847   0.10425
H          H       0.44744   0.32337   0.85594   0.11919
H          H       0.53885   0.32385   0.85845   0.13472
H          H       0.41781   0.03229   0.52210   0.10872
H          H       0.40800   0.09639   0.53728   0.11477
H          H       0.41188   0.14116   0.59529   0.11195
H          H       0.53981   0.13870   0.58845   0.11411
H          H       0.53606   0.09353   0.53153   0.10364
H          H       0.44744   0.17661   0.64407   0.12299
H          H       0.53884   0.17622   0.64161   0.13414
H          H       0.08219   0.46771   0.52211   0.10795
H          H       0.09201   0.40360   0.53730   0.11744
H          H       0.08810   0.35883   0.59531   0.11156
H          H       0.96018   0.36131   0.58844   0.11336
H          H       0.96395   0.40648   0.53153   0.10390
H          H       0.05259   0.32338   0.64406   0.12266
H          H       0.96120   0.32374   0.64169   0.13533
H          H       0.97790   0.08220   0.03229   0.10834
H          H       0.96270   0.09201   0.09640   0.11327
H          H       0.90469   0.08809   0.14118   0.11260
H          H       0.91157   0.96017   0.13869   0.11127
H          H       0.96848   0.96394   0.09352   0.10417
H          H       0.85596   0.05253   0.17659   0.11965
H          H       0.85845   0.96107   0.17618   0.13570
H          H       0.97790   0.41780   0.46772   0.10798
H          H       0.96272   0.40798   0.40361   0.11414
H          H       0.90472   0.41187   0.35883   0.11312
H          H       0.91156   0.53980   0.36130   0.11386
H          H       0.96847   0.53605   0.40647   0.10427
H          H       0.85594   0.44744   0.32337   0.11896
H          H       0.85845   0.53885   0.32386   0.13477
H          H       0.52210   0.41781   0.03229   0.10854
H          H       0.53728   0.40800   0.09639   0.11465
H          H       0.59529   0.41188   0.14116   0.11185
H          H       0.58845   0.53982   0.13870   0.11428
H          H       0.53153   0.53606   0.09353   0.10373
H          H       0.64407   0.44744   0.17661   0.12295
H          H       0.64161   0.53885   0.17622   0.13430
H          H       0.52211   0.08219   0.46771   0.10797
H          H       0.53730   0.09201   0.40361   0.11755
H          H       0.59530   0.08811   0.35883   0.11156
H          H       0.58843   0.96018   0.36131   0.11318
H          H       0.53152   0.96395   0.40648   0.10387
H          H       0.64405   0.05259   0.32338   0.12273
H          H       0.64169   0.96120   0.32375   0.13536
H          H       0.03229   0.97790   0.08220   0.10834
H          H       0.09639   0.96270   0.09201   0.11335
H          H       0.14117   0.90470   0.08809   0.11253
H          H       0.13868   0.91157   0.96017   0.11119
H          H       0.09351   0.96848   0.96394   0.10418
H          H       0.17659   0.85596   0.05253   0.12347
H          H       0.17617   0.85845   0.96107   0.13580
H          H       0.46772   0.97790   0.41780   0.10783
H          H       0.40361   0.96272   0.40798   0.11400
H          H       0.35883   0.90472   0.41187   0.11307
H          H       0.36130   0.91156   0.53980   0.11405
H          H       0.40647   0.96847   0.53605   0.10439
H          H       0.32337   0.85594   0.44744   0.11890
H          H       0.32385   0.85845   0.53885   0.13487
H          H       0.03229   0.52210   0.41782   0.10851
H          H       0.09639   0.53728   0.40800   0.11470
H          H       0.14116   0.59529   0.41188   0.11175
H          H       0.13869   0.58845   0.53982   0.11420
H          H       0.09353   0.53153   0.53606   0.10380
H          H       0.17661   0.64407   0.44745   0.12283
H          H       0.17622   0.64161   0.53885   0.13436
H          H       0.46771   0.52211   0.08220   0.10809
H          H       0.40360   0.53730   0.09201   0.11761
H          H       0.35883   0.59531   0.08811   0.11179
H          H       0.36130   0.58844   0.96018   0.11317
H          H       0.40647   0.53152   0.96395   0.10377
H          H       0.32338   0.64406   0.05259   0.11940
H          H       0.32374   0.64169   0.96120   0.13521
C          C       0.93975   0.96784   0.99836  -0.17918
C          C       0.96956   0.93864   0.99797   0.07354
C          C       0.97165   0.90904   0.03029   0.06918
C          C       0.93692   0.89481   0.04875  -0.13617
C          C       0.93909   0.86940   0.08129  -0.13020
C          C       0.97600   0.85699   0.09675   0.08858
C          C       0.01078   0.87040   0.07749  -0.12157
C          C       0.00865   0.89577   0.04498  -0.13459
C          C       0.97636   0.83162   0.13179  -0.07084
C          C       0.00866   0.81756   0.15102  -0.23723
C          C       0.00541   0.79262   0.18684   0.62282
C          C       0.56024   0.53215   0.99837  -0.17855
C          C       0.53044   0.56135   0.99797   0.07097
C          C       0.52835   0.59096   0.03029   0.07031
C          C       0.56309   0.60519   0.04875  -0.13748
C          C       0.56093   0.63060   0.08129  -0.13034
C          C       0.52402   0.64303   0.09678   0.09129
C          C       0.48925   0.62961   0.07751  -0.12621
C          C       0.49137   0.60423   0.04499  -0.13295
C          C       0.52366   0.66842   0.13183  -0.07095
C          C       0.49138   0.68247   0.15109  -0.23407
C          C       0.49447   0.70755   0.18686   0.62178
C          C       0.56023   0.96784   0.50164  -0.17881
C          C       0.53043   0.93864   0.50203   0.07118
C          C       0.52834   0.90903   0.46970   0.07021
C          C       0.56307   0.89480   0.45124  -0.13719
C          C       0.56090   0.86938   0.41869  -0.12955
C          C       0.52398   0.85692   0.40318   0.08886
C          C       0.48924   0.87039   0.42248  -0.12392
C          C       0.49136   0.89576   0.45501  -0.13429
C          C       0.52360   0.83151   0.36809  -0.07111
C          C       0.49134   0.81741   0.34874  -0.23717
C          C       0.49441   0.79266   0.31265   0.62077
C          C       0.93975   0.53216   0.50163  -0.17989
C          C       0.96956   0.56136   0.50202   0.07392
C          C       0.97165   0.59097   0.46970   0.06950
C          C       0.93692   0.60520   0.45123  -0.13961
C          C       0.93910   0.63062   0.41869  -0.12819
C          C       0.97601   0.64306   0.40319   0.08461
C          C       0.01076   0.62961   0.42248  -0.12025
C          C       0.00863   0.60424   0.45501  -0.13628
C          C       0.97635   0.66848   0.36810  -0.06981
C          C       0.00856   0.68259   0.34872  -0.23706
C          C       0.00547   0.70744   0.31267   0.62430
C          C       0.99836   0.93975   0.96784  -0.17944
C          C       0.99797   0.96956   0.93864   0.07342
C          C       0.03029   0.97165   0.90904   0.06892
C          C       0.04875   0.93692   0.89481  -0.13582
C          C       0.08128   0.93909   0.86940  -0.13038
C          C       0.09674   0.97600   0.85699   0.08895
C          C       0.07749   0.01078   0.87040  -0.12171
C          C       0.04497   0.00865   0.89577  -0.13451
C          C       0.13178   0.97636   0.83162  -0.06765
C          C       0.15102   0.00866   0.81756  -0.23720
C          C       0.18684   0.00541   0.79262   0.62320
C          C       0.99836   0.56025   0.53215  -0.17845
C          C       0.99797   0.53044   0.56135   0.07109
C          C       0.03029   0.52835   0.59096   0.07047
C          C       0.04874   0.56309   0.60519  -0.13711
C          C       0.08128   0.56093   0.63060  -0.13064
C          C       0.09677   0.52402   0.64303   0.09137
C          C       0.07750   0.48925   0.62961  -0.12618
C          C       0.04498   0.49137   0.60423  -0.13310
C          C       0.13183   0.52366   0.66842  -0.07136
C          C       0.15108   0.49138   0.68248  -0.23472
C          C       0.18686   0.49447   0.70755   0.62209
C          C       0.50163   0.56024   0.96784  -0.17875
C          C       0.50203   0.53043   0.93864   0.07115
C          C       0.46970   0.52834   0.90903   0.07006
C          C       0.45124   0.56307   0.89480  -0.13758
C          C       0.41868   0.56090   0.86938  -0.12904
C          C       0.40317   0.52398   0.85693   0.08867
C          C       0.42247   0.48924   0.87039  -0.12363
C          C       0.45500   0.49136   0.89576  -0.13441
C          C       0.36808   0.52360   0.83151  -0.07101
C          C       0.34874   0.49134   0.81741  -0.23711
C          C       0.31265   0.49441   0.79266   0.62057
C          C       0.50162   0.93975   0.53216  -0.17986
C          C       0.50202   0.96956   0.56136   0.07382
C          C       0.46969   0.97165   0.59097   0.06951
C          C       0.45123   0.93692   0.60520  -0.13981
C          C       0.41868   0.93910   0.63062  -0.12815
C          C       0.40318   0.97601   0.64306   0.08468
C          C       0.42248   0.01076   0.62961  -0.12056
C          C       0.45500   0.00863   0.60424  -0.13596
C          C       0.36810   0.97635   0.66848  -0.07025
C          C       0.34871   0.00856   0.68260  -0.23648
C          C       0.31267   0.00547   0.70744   0.62410
C          C       0.96784   0.99836   0.93975  -0.17941
C          C       0.93864   0.99797   0.96956   0.07335
C          C       0.90904   0.03029   0.97166   0.06944
C          C       0.89481   0.04875   0.93692  -0.13646
C          C       0.86940   0.08128   0.93909  -0.12989
C          C       0.85698   0.09675   0.97600   0.08882
C          C       0.87040   0.07749   0.01078  -0.12163
C          C       0.89577   0.04498   0.00865  -0.13459
C          C       0.83161   0.13178   0.97636  -0.06768
C          C       0.81756   0.15102   0.00866  -0.23686
C          C       0.79262   0.18684   0.00542   0.62299
C          C       0.53215   0.99836   0.56025  -0.17821
C          C       0.56134   0.99797   0.53044   0.07079
C          C       0.59096   0.03029   0.52836   0.07050
C          C       0.60519   0.04874   0.56309  -0.13722
C          C       0.63060   0.08129   0.56093  -0.13051
C          C       0.64303   0.09678   0.52403   0.09125
C          C       0.62961   0.07751   0.48925  -0.12621
C          C       0.60423   0.04498   0.49137  -0.13313
C          C       0.66842   0.13183   0.52366  -0.07054
C          C       0.68247   0.15108   0.49138  -0.23458
C          C       0.70754   0.18686   0.49447   0.62172
C          C       0.96784   0.50163   0.56024  -0.17875
C          C       0.93864   0.50203   0.53043   0.07142
C          C       0.90903   0.46970   0.52835   0.07010
C          C       0.89480   0.45124   0.56307  -0.13729
C          C       0.86937   0.41868   0.56090  -0.12907
C          C       0.85692   0.40318   0.52399   0.08897
C          C       0.87038   0.42247   0.48924  -0.12408
C          C       0.89576   0.45501   0.49136  -0.13454
C          C       0.83151   0.36808   0.52361  -0.07105
C          C       0.81741   0.34874   0.49134  -0.23711
C          C       0.79266   0.31265   0.49441   0.62067
C          C       0.53216   0.50162   0.93975  -0.17981
C          C       0.56135   0.50202   0.96956   0.07387
C          C       0.59096   0.46969   0.97165   0.06954
C          C       0.60519   0.45123   0.93692  -0.13990
C          C       0.63061   0.41868   0.93910  -0.12809
C          C       0.64306   0.40319   0.97601   0.08449
C          C       0.62961   0.42248   0.01076  -0.12029
C          C       0.60424   0.45501   0.00863  -0.13607
C          C       0.66848   0.36810   0.97635  -0.06980
C          C       0.68259   0.34872   0.00857  -0.23668
C          C       0.70744   0.31267   0.00547   0.62427
C          C       0.03216   0.06024   0.49837  -0.17781
C          C       0.06136   0.03043   0.49797   0.07071
C          C       0.09097   0.02834   0.53030   0.07050
C          C       0.10520   0.06307   0.54877  -0.13739
C          C       0.13062   0.06089   0.58132  -0.13186
C          C       0.14306   0.02397   0.59680   0.09079
C          C       0.12961   0.98922   0.57751  -0.12480
C          C       0.10423   0.99135   0.54499  -0.13241
C          C       0.16847   0.02361   0.63189  -0.07013
C          C       0.18258   0.99136   0.65124  -0.23686
C          C       0.20732   0.99452   0.68733   0.62660
C          C       0.46784   0.43975   0.49837  -0.17857
C          C       0.43865   0.46956   0.49798   0.07318
C          C       0.40903   0.47165   0.53030   0.06719
C          C       0.39480   0.43692   0.54876  -0.13679
C          C       0.36938   0.43909   0.58131  -0.12858
C          C       0.35692   0.47599   0.59683   0.08733
C          C       0.37038   0.51074   0.57753  -0.12444
C          C       0.39576   0.50863   0.54500  -0.13362
C          C       0.33150   0.47635   0.63192  -0.06860
C          C       0.31740   0.50858   0.65128  -0.23418
C          C       0.29256   0.50557   0.68733   0.61859
C          C       0.03215   0.43976   0.00164  -0.17807
C          C       0.06135   0.46957   0.00204   0.07246
C          C       0.09096   0.47165   0.96971   0.07029
C          C       0.10519   0.43691   0.95126  -0.13801
C          C       0.13060   0.43908   0.91871  -0.12902
C          C       0.14303   0.47599   0.90323   0.08528
C          C       0.12960   0.51076   0.92250  -0.12074
C          C       0.10423   0.50864   0.95502  -0.13533
C          C       0.16840   0.47638   0.86818  -0.06623
C          C       0.18244   0.50870   0.84897  -0.23568
C          C       0.20740   0.50557   0.81313   0.61977
C          C       0.46784   0.06025   0.00163  -0.18077
C          C       0.43865   0.03044   0.00203   0.07377
C          C       0.40903   0.02835   0.96971   0.06827
C          C       0.39481   0.06308   0.95125  -0.13681
C          C       0.36940   0.06092   0.91871  -0.12811
C          C       0.35698   0.02401   0.90324   0.08857
C          C       0.37040   0.98923   0.92250  -0.12326
C          C       0.39577   0.99136   0.95502  -0.13393
C          C       0.33160   0.02367   0.86820  -0.06877
C          C       0.31753   0.99139   0.84893  -0.23871
C          C       0.29246   0.99457   0.81317   0.62262
C          C       0.06025   0.00163   0.46784  -0.18094
C          C       0.03044   0.00202   0.43865   0.07388
C          C       0.02835   0.96970   0.40904   0.06874
C          C       0.06308   0.95125   0.39481  -0.13709
C          C       0.06091   0.91871   0.36940  -0.12813
C          C       0.02401   0.90324   0.35698   0.08863
C          C       0.98923   0.92250   0.37040  -0.12352
C          C       0.99136   0.95502   0.39577  -0.13371
C          C       0.02367   0.86820   0.33161  -0.06898
C          C       0.99139   0.84893   0.31754  -0.23844
C          C       0.99456   0.81317   0.29246   0.62281
C          C       0.43976   0.00164   0.03215  -0.17810
C          C       0.46957   0.00203   0.06135   0.07249
C          C       0.47165   0.96971   0.09097   0.06997
C          C       0.43691   0.95126   0.10519  -0.13797
C          C       0.43908   0.91871   0.13061  -0.12903
C          C       0.47599   0.90323   0.14303   0.08545
C          C       0.51076   0.92250   0.12960  -0.12065
C          C       0.50864   0.95502   0.10424  -0.13522
C          C       0.47638   0.86818   0.16840  -0.06629
C          C       0.50870   0.84896   0.18244  -0.23560
C          C       0.50557   0.81313   0.20740   0.61970
C          C       0.43975   0.49837   0.46785  -0.17837
C          C       0.46956   0.49797   0.43865   0.07301
C          C       0.47165   0.53030   0.40904   0.06735
C          C       0.43692   0.54876   0.39480  -0.13669
C          C       0.43908   0.58131   0.36938  -0.12882
C          C       0.47599   0.59683   0.35692   0.08760
C          C       0.51074   0.57753   0.37038  -0.12475
C          C       0.50863   0.54500   0.39576  -0.13345
C          C       0.47635   0.63191   0.33151  -0.06866
C          C       0.50858   0.65128   0.31741  -0.23427
C          C       0.50556   0.68732   0.29257   0.61844
C          C       0.06024   0.49837   0.03216  -0.17779
C          C       0.03043   0.49797   0.06136   0.07065
C          C       0.02834   0.53030   0.09097   0.07033
C          C       0.06307   0.54877   0.10520  -0.13720
C          C       0.06089   0.58131   0.13062  -0.13185
C          C       0.02397   0.59680   0.14306   0.09071
C          C       0.98922   0.57751   0.12961  -0.12432
C          C       0.99135   0.54499   0.10424  -0.13258
C          C       0.02361   0.63188   0.16847  -0.07037
C          C       0.99136   0.65124   0.18258  -0.23674
C          C       0.99452   0.68733   0.20732   0.62651
C          C       0.00164   0.03215   0.43976  -0.17819
C          C       0.00203   0.06135   0.46957   0.07248
C          C       0.96971   0.09097   0.47165   0.07022
C          C       0.95125   0.10519   0.43692  -0.13841
C          C       0.91871   0.13060   0.43908  -0.12890
C          C       0.90323   0.14303   0.47599   0.08529
C          C       0.92250   0.12960   0.51076  -0.12052
C          C       0.95502   0.10423   0.50864  -0.13532
C          C       0.86818   0.16840   0.47638  -0.06614
C          C       0.84896   0.18244   0.50870  -0.23566
C          C       0.81312   0.20740   0.50557   0.61974
C          C       0.00163   0.46784   0.06025  -0.18091
C          C       0.00202   0.43865   0.03044   0.07382
C          C       0.96970   0.40904   0.02835   0.06844
C          C       0.95125   0.39481   0.06309  -0.13919
C          C       0.91871   0.36940   0.06092  -0.12805
C          C       0.90324   0.35698   0.02401   0.08840
C          C       0.92250   0.37040   0.98924  -0.12327
C          C       0.95502   0.39577   0.99136  -0.13419
C          C       0.86820   0.33161   0.02367  -0.07141
C          C       0.84892   0.31754   0.99140  -0.23890
C          C       0.81317   0.29246   0.99457   0.62257
C          C       0.49837   0.03216   0.06024  -0.17775
C          C       0.49797   0.06136   0.03043   0.07068
C          C       0.53030   0.09097   0.02834   0.07060
C          C       0.54877   0.10520   0.06307  -0.13737
C          C       0.58131   0.13062   0.06089  -0.13182
C          C       0.59680   0.14306   0.02398   0.09058
C          C       0.57751   0.12961   0.98923  -0.12495
C          C       0.54498   0.10423   0.99135  -0.13227
C          C       0.63188   0.16847   0.02361  -0.06971
C          C       0.65124   0.18258   0.99137  -0.23698
C          C       0.68732   0.20732   0.99452   0.62669
C          C       0.49837   0.46785   0.43976  -0.17835
C          C       0.49797   0.43865   0.46957   0.07318
C          C       0.53030   0.40903   0.47165   0.06728
C          C       0.54876   0.39480   0.43692  -0.13675
C          C       0.58131   0.36938   0.43909  -0.12901
C          C       0.59682   0.35692   0.47599   0.08752
C          C       0.57753   0.37038   0.51074  -0.12459
C          C       0.54500   0.39576   0.50863  -0.13339
C          C       0.63191   0.33151   0.47635  -0.06804
C          C       0.65128   0.31741   0.50858  -0.23421
C          C       0.68732   0.29256   0.50557   0.61839
C          C       0.96783   0.93976   0.50163  -0.17772
C          C       0.93864   0.96957   0.50203   0.07054
C          C       0.90903   0.97166   0.46970   0.07059
C          C       0.89480   0.93693   0.45123  -0.13728
C          C       0.86938   0.93911   0.41869  -0.13168
C          C       0.85693   0.97602   0.40320   0.09067
C          C       0.87039   0.01077   0.42249  -0.12462
C          C       0.89576   0.00865   0.45501  -0.13265
C          C       0.83152   0.97639   0.36812  -0.06989
C          C       0.81742   0.00863   0.34876  -0.23708
C          C       0.79268   0.00547   0.31267   0.62674
C          C       0.53215   0.56024   0.50163  -0.17847
C          C       0.56135   0.53043   0.50203   0.07309
C          C       0.59096   0.52835   0.46970   0.06722
C          C       0.60520   0.56308   0.45124  -0.13664
C          C       0.63062   0.56091   0.41869  -0.12902
C          C       0.64307   0.52401   0.40317   0.08765
C          C       0.62962   0.48926   0.42247  -0.12471
C          C       0.60424   0.49137   0.45500  -0.13320
C          C       0.66849   0.52365   0.36809  -0.06897
C          C       0.68259   0.49142   0.34872  -0.23407
C          C       0.70743   0.49443   0.31268   0.61841
C          C       0.96784   0.56024   0.99836  -0.17811
C          C       0.93864   0.53043   0.99797   0.07257
C          C       0.90903   0.52835   0.03029   0.07038
C          C       0.89481   0.56308   0.04875  -0.13837
C          C       0.86939   0.56092   0.08129  -0.12882
C          C       0.85697   0.52401   0.09677   0.08531
C          C       0.87040   0.48924   0.07750  -0.12044
C          C       0.89576   0.49136   0.04498  -0.13535
C          C       0.83159   0.52362   0.13182  -0.06635
C          C       0.81756   0.49130   0.15104  -0.23542
C          C       0.79260   0.49443   0.18687   0.61977
C          C       0.53215   0.93974   0.99837  -0.18091
C          C       0.56135   0.96956   0.99798   0.07352
C          C       0.59096   0.97165   0.03030   0.06834
C          C       0.60519   0.93691   0.04875  -0.13911
C          C       0.63060   0.93908   0.08129  -0.12811
C          C       0.64301   0.97599   0.09676   0.08832
C          C       0.62960   0.01076   0.07750  -0.12352
C          C       0.60423   0.00864   0.04498  -0.13380
C          C       0.66839   0.97633   0.13181  -0.07139
C          C       0.68246   0.00860   0.15107  -0.23876
C          C       0.70754   0.00543   0.18683   0.62276
C          C       0.93974   0.99837   0.53216  -0.18068
C          C       0.96955   0.99797   0.56135   0.07376
C          C       0.97165   0.03029   0.59097   0.06885
C          C       0.93691   0.04875   0.60519  -0.13695
C          C       0.93908   0.08128   0.63060  -0.12802
C          C       0.97598   0.09676   0.64302   0.08822
C          C       0.01076   0.07750   0.62960  -0.12373
C          C       0.00863   0.04498   0.60423  -0.13405
C          C       0.97633   0.13180   0.66840  -0.07111
C          C       0.00860   0.15107   0.68246  -0.23891
C          C       0.00543   0.18683   0.70754   0.62283
C          C       0.56024   0.99836   0.96785  -0.17797
C          C       0.53043   0.99796   0.93865   0.07240
C          C       0.52835   0.03029   0.90903   0.07026
C          C       0.56308   0.04874   0.89481  -0.13831
C          C       0.56092   0.08129   0.86940  -0.12904
C          C       0.52401   0.09676   0.85697   0.08536
C          C       0.48924   0.07750   0.87040  -0.12030
C          C       0.49136   0.04498   0.89577  -0.13536
C          C       0.52362   0.13182   0.83160  -0.06646
C          C       0.49130   0.15103   0.81756  -0.23543
C          C       0.49443   0.18687   0.79260   0.61985
C          C       0.56024   0.50163   0.53215  -0.17866
C          C       0.53043   0.50202   0.56135   0.07329
C          C       0.52835   0.46970   0.59097   0.06713
C          C       0.56308   0.45124   0.60520  -0.13673
C          C       0.56091   0.41869   0.63062  -0.12879
C          C       0.52401   0.40317   0.64308   0.08748
C          C       0.48925   0.42247   0.62962  -0.12465
C          C       0.49137   0.45500   0.60424  -0.13342
C          C       0.52365   0.36808   0.66849  -0.06816
C          C       0.49142   0.34872   0.68259  -0.23390
C          C       0.49443   0.31267   0.70743   0.61811
C          C       0.93975   0.50163   0.96784  -0.17755
C          C       0.96956   0.50202   0.93864   0.07073
C          C       0.97165   0.46970   0.90903   0.07038
C          C       0.93693   0.45123   0.89480  -0.13744
C          C       0.93911   0.41868   0.86938  -0.13159
C          C       0.97602   0.40319   0.85694   0.09084
C          C       0.01077   0.42248   0.87039  -0.12469
C          C       0.00864   0.45501   0.89576  -0.13278
C          C       0.97639   0.36811   0.83153  -0.06999
C          C       0.00863   0.34876   0.81742  -0.23701
C          C       0.00547   0.31267   0.79268   0.62672
C          C       0.99836   0.96784   0.56024  -0.17806
C          C       0.99796   0.93864   0.53043   0.07250
C          C       0.03028   0.90903   0.52835   0.07024
C          C       0.04874   0.89481   0.56308  -0.13827
C          C       0.08128   0.86939   0.56092  -0.12882
C          C       0.09676   0.85697   0.52401   0.08534
C          C       0.07750   0.87040   0.48924  -0.12051
C          C       0.04497   0.89576   0.49136  -0.13533
C          C       0.13182   0.83160   0.52362  -0.06631
C          C       0.15103   0.81756   0.49130  -0.23556
C          C       0.18687   0.79260   0.49443   0.61991
C          C       0.99837   0.53215   0.93975  -0.18087
C          C       0.99797   0.56135   0.96956   0.07359
C          C       0.03029   0.59096   0.97165   0.06867
C          C       0.04874   0.60519   0.93691  -0.13665
C          C       0.08128   0.63060   0.93908  -0.12828
C          C       0.09676   0.64301   0.97599   0.08840
C          C       0.07750   0.62960   0.01076  -0.12320
C          C       0.04498   0.60423   0.00864  -0.13404
C          C       0.13180   0.66839   0.97633  -0.07143
C          C       0.15107   0.68246   0.00860  -0.23903
C          C       0.18683   0.70754   0.00543   0.62301
C          C       0.50163   0.96783   0.93976  -0.17761
C          C       0.50202   0.93864   0.96957   0.07072
C          C       0.46970   0.90903   0.97166   0.07054
C          C       0.45123   0.89480   0.93693  -0.13760
C          C       0.41868   0.86938   0.93911  -0.13155
C          C       0.40319   0.85693   0.97603   0.09061
C          C       0.42248   0.87039   0.01078  -0.12470
C          C       0.45501   0.89576   0.00865  -0.13240
C          C       0.36811   0.83152   0.97639  -0.07000
C          C       0.34876   0.81742   0.00863  -0.23661
C          C       0.31267   0.79268   0.00548   0.62606
C          C       0.50163   0.53215   0.56025  -0.17842
C          C       0.50202   0.56135   0.53044   0.07305
C          C       0.46970   0.59096   0.52835   0.06719
C          C       0.45124   0.60520   0.56308  -0.13692
C          C       0.41868   0.63062   0.56091  -0.12860
C          C       0.40317   0.64307   0.52401   0.08710
C          C       0.42247   0.62962   0.48926  -0.12461
C          C       0.45500   0.60424   0.49137  -0.13354
C          C       0.36808   0.66849   0.52365  -0.07145
C          C       0.34872   0.68259   0.49142  -0.23428
C          C       0.31267   0.70743   0.49444   0.61832
C          C       0.06025   0.03216   0.00164  -0.17943
C          C       0.03044   0.06136   0.00203   0.07339
C          C       0.02834   0.09096   0.96971   0.06929
C          C       0.06307   0.10518   0.95125  -0.13616
C          C       0.06091   0.13060   0.91872  -0.13034
C          C       0.02400   0.14301   0.90325   0.08863
C          C       0.98922   0.12959   0.92251  -0.12222
C          C       0.99135   0.10422   0.95502  -0.13438
C          C       0.02363   0.16838   0.86822  -0.07101
C          C       0.99133   0.18244   0.84898  -0.23710
C          C       0.99458   0.20738   0.81316   0.62285
C          C       0.43975   0.46785   0.00163  -0.17835
C          C       0.46956   0.43865   0.00203   0.07090
C          C       0.47164   0.40904   0.96971   0.07027
C          C       0.43691   0.39481   0.95126  -0.13724
C          C       0.43907   0.36939   0.91871  -0.13047
C          C       0.47597   0.35697   0.90322   0.09135
C          C       0.51074   0.37039   0.92249  -0.12611
C          C       0.50863   0.39576   0.95502  -0.13327
C          C       0.47633   0.33158   0.86817  -0.07080
C          C       0.50862   0.31752   0.84892  -0.23467
C          C       0.50553   0.29245   0.81314   0.62184
C          C       0.43976   0.03216   0.49837  -0.17871
C          C       0.46957   0.06136   0.49797   0.07143
C          C       0.47165   0.09097   0.53030   0.07010
C          C       0.43692   0.10520   0.54876  -0.13698
C          C       0.43910   0.13062   0.58132  -0.12931
C          C       0.47601   0.14307   0.59682   0.08888
C          C       0.51076   0.12961   0.57753  -0.12415
C          C       0.50864   0.10424   0.54499  -0.13451
C          C       0.47639   0.16849   0.63192  -0.07103
C          C       0.50866   0.18258   0.65126  -0.23715
C          C       0.50559   0.20734   0.68735   0.62067
C          C       0.06025   0.46784   0.49837  -0.18005
C          C       0.03044   0.43864   0.49798   0.07402
C          C       0.02835   0.40903   0.53030   0.06945
C          C       0.06308   0.39480   0.54877  -0.13975
C          C       0.06090   0.36938   0.58132  -0.12845
C          C       0.02399   0.35694   0.59681   0.08478
C          C       0.98924   0.37039   0.57752  -0.12011
C          C       0.99136   0.39576   0.54500  -0.13617
C          C       0.02365   0.33152   0.63190  -0.07014
C          C       0.99143   0.31740   0.65129  -0.23653
C          C       0.99453   0.29256   0.68733   0.62428
C          C       0.00164   0.06025   0.03216  -0.17944
C          C       0.00203   0.03044   0.06136   0.07335
C          C       0.96971   0.02835   0.09096   0.06923
C          C       0.95125   0.06308   0.10519  -0.13636
C          C       0.91872   0.06091   0.13060  -0.12989
C          C       0.90325   0.02400   0.14302   0.08886
C          C       0.92250   0.98922   0.12960  -0.12141
C          C       0.95502   0.99135   0.10423  -0.13481
C          C       0.86821   0.02364   0.16838  -0.06835
C          C       0.84898   0.99134   0.18244  -0.23706
C          C       0.81315   0.99458   0.20738   0.62289
C          C       0.00163   0.43975   0.46785  -0.17812
C          C       0.00203   0.46956   0.43865   0.07087
C          C       0.96971   0.47164   0.40904   0.07046
C          C       0.95125   0.43691   0.39481  -0.13749
C          C       0.91871   0.43907   0.36940  -0.13034
C          C       0.90322   0.47597   0.35697   0.09127
C          C       0.92249   0.51075   0.37039  -0.12619
C          C       0.95501   0.50863   0.39577  -0.13303
C          C       0.86817   0.47634   0.33158  -0.07080
C          C       0.84891   0.50862   0.31753  -0.23436
C          C       0.81314   0.50553   0.29246   0.62171
C          C       0.49836   0.43976   0.03216  -0.17862
C          C       0.49797   0.46957   0.06136   0.07113
C          C       0.53030   0.47166   0.09097   0.07021
C          C       0.54876   0.43693   0.10520  -0.13709
C          C       0.58131   0.43910   0.13062  -0.12935
C          C       0.59682   0.47601   0.14308   0.08897
C          C       0.57752   0.51076   0.12961  -0.12421
C          C       0.54499   0.50864   0.10424  -0.13436
C          C       0.63191   0.47639   0.16849  -0.07116
C          C       0.65126   0.50866   0.18259  -0.23710
C          C       0.68735   0.50559   0.20734   0.62073
C          C       0.49837   0.06025   0.46784  -0.18008
C          C       0.49798   0.03044   0.43864   0.07397
C          C       0.53030   0.02835   0.40903   0.06932
C          C       0.54877   0.06308   0.39480  -0.13948
C          C       0.58131   0.06090   0.36938  -0.12831
C          C       0.59681   0.02399   0.35694   0.08460
C          C       0.57752   0.98924   0.37039  -0.12051
C          C       0.54499   0.99137   0.39576  -0.13581
C          C       0.63190   0.02365   0.33152  -0.06974
C          C       0.65128   0.99143   0.31741  -0.23687
C          C       0.68732   0.99453   0.29256   0.62442
C          C       0.03216   0.00164   0.06025  -0.17941
C          C       0.06136   0.00203   0.03044   0.07345
C          C       0.09096   0.96971   0.02835   0.06902
C          C       0.10518   0.95125   0.06308  -0.13609
C          C       0.13060   0.91872   0.06091  -0.13020
C          C       0.14301   0.90325   0.02400   0.08854
C          C       0.12959   0.92250   0.98922  -0.12173
C          C       0.10422   0.95502   0.99135  -0.13429
C          C       0.16838   0.86822   0.02364  -0.07096
C          C       0.18244   0.84898   0.99134  -0.23742
C          C       0.20737   0.81315   0.99458   0.62289
C          C       0.46785   0.00163   0.43975  -0.17811
C          C       0.43865   0.00203   0.46956   0.07071
C          C       0.40903   0.96971   0.47164   0.07038
C          C       0.39481   0.95125   0.43691  -0.13739
C          C       0.36939   0.91871   0.43907  -0.13036
C          C       0.35697   0.90322   0.47598   0.09132
C          C       0.37039   0.92249   0.51075  -0.12617
C          C       0.39576   0.95501   0.50863  -0.13310
C          C       0.33158   0.86817   0.47634  -0.07071
C          C       0.31752   0.84891   0.50862  -0.23461
C          C       0.29245   0.81314   0.50553   0.62186
C          C       0.03216   0.49836   0.43976  -0.17866
C          C       0.06136   0.49797   0.46957   0.07113
C          C       0.09097   0.53030   0.47166   0.07038
C          C       0.10520   0.54876   0.43693  -0.13713
C          C       0.13062   0.58132   0.43910  -0.12938
C          C       0.14307   0.59682   0.47601   0.08885
C          C       0.12961   0.57752   0.51076  -0.12411
C          C       0.10424   0.54499   0.50864  -0.13441
C          C       0.16849   0.63191   0.47640  -0.07116
C          C       0.18258   0.65126   0.50866  -0.23699
C          C       0.20733   0.68735   0.50559   0.62069
C          C       0.46784   0.49837   0.06025  -0.17992
C          C       0.43864   0.49798   0.03044   0.07410
C          C       0.40903   0.53030   0.02835   0.06928
C          C       0.39480   0.54877   0.06308  -0.13959
C          C       0.36938   0.58132   0.06090  -0.12811
C          C       0.35694   0.59681   0.02399   0.08478
C          C       0.37038   0.57752   0.98924  -0.12011
C          C       0.39576   0.54499   0.99137  -0.13618
C          C       0.33152   0.63190   0.02365  -0.06749
C          C       0.31740   0.65128   0.99143  -0.23643
C          C       0.29256   0.68732   0.99453   0.62423
O          O       0.03889   0.78189   0.20203  -0.54770
O          O       0.97094   0.78362   0.20024  -0.56215
O          O       0.46079   0.71768   0.20214  -0.54603
O          O       0.52887   0.71722   0.20008  -0.56491
O          O       0.46084   0.78202   0.29741  -0.54549
O          O       0.52887   0.78378   0.29907  -0.56156
O          O       0.03902   0.71760   0.29722  -0.54899
O          O       0.97115   0.71697   0.29922  -0.56540
O          O       0.20203   0.03890   0.78189  -0.54769
O          O       0.20024   0.97094   0.78362  -0.56188
O          O       0.20214   0.46079   0.71768  -0.54612
O          O       0.20008   0.52887   0.71722  -0.56494
O          O       0.29741   0.46084   0.78202  -0.54564
O          O       0.29906   0.52887   0.78378  -0.56134
O          O       0.29722   0.03903   0.71760  -0.54887
O          O       0.29922   0.97115   0.71697  -0.56556
O          O       0.78189   0.20203   0.03890  -0.54732
O          O       0.78362   0.20024   0.97094  -0.56219
O          O       0.71767   0.20214   0.46079  -0.54630
O          O       0.71721   0.20008   0.52888  -0.56446
O          O       0.78202   0.29741   0.46084  -0.54592
O          O       0.78377   0.29907   0.52887  -0.56116
O          O       0.71760   0.29722   0.03903  -0.54871
O          O       0.71697   0.29922   0.97116  -0.56574
O          O       0.21798   0.96107   0.70267  -0.54972
O          O       0.21623   0.02895   0.70090  -0.56280
O          O       0.28248   0.53923   0.70271  -0.54732
O          O       0.28302   0.47121   0.70077  -0.56090
O          O       0.21809   0.53915   0.79800  -0.54386
O          O       0.21640   0.47106   0.79973  -0.56336
O          O       0.28221   0.96099   0.79786  -0.54673
O          O       0.28280   0.02893   0.79993  -0.56453
O          O       0.96099   0.79786   0.28222  -0.54669
O          O       0.02893   0.79993   0.28280  -0.56476
O          O       0.53915   0.79799   0.21809  -0.54403
O          O       0.47106   0.79973   0.21640  -0.56316
O          O       0.53923   0.70271   0.28248  -0.54731
O          O       0.47121   0.70077   0.28302  -0.56069
O          O       0.96107   0.70267   0.21798  -0.54958
O          O       0.02895   0.70090   0.21623  -0.56281
O          O       0.79799   0.21809   0.53916  -0.54364
O          O       0.79973   0.21640   0.47106  -0.56354
O          O       0.79786   0.28222   0.96099  -0.54693
O          O       0.79993   0.28280   0.02893  -0.56456
O          O       0.70267   0.21798   0.96107  -0.54993
O          O       0.70090   0.21623   0.02895  -0.56274
O          O       0.70271   0.28248   0.53923  -0.54707
O          O       0.70077   0.28302   0.47122  -0.56093
O          O       0.78202   0.03893   0.29733  -0.54997
O          O       0.78377   0.97105   0.29910  -0.56267
O          O       0.71752   0.46077   0.29729  -0.54707
O          O       0.71698   0.52878   0.29923  -0.56092
O          O       0.78191   0.46085   0.20201  -0.54388
O          O       0.78360   0.52894   0.20027  -0.56343
O          O       0.71778   0.03901   0.20214  -0.54700
O          O       0.71719   0.97107   0.20008  -0.56473
O          O       0.03901   0.20214   0.71778  -0.54725
O          O       0.97107   0.20007   0.71720  -0.56461
O          O       0.46084   0.20200   0.78191  -0.54352
O          O       0.52893   0.20027   0.78360  -0.56386
O          O       0.46077   0.29729   0.71752  -0.54684
O          O       0.52878   0.29922   0.71698  -0.56104
O          O       0.03893   0.29733   0.78202  -0.55031
O          O       0.97105   0.29910   0.78377  -0.56226
O          O       0.20200   0.78191   0.46085  -0.54389
O          O       0.20026   0.78360   0.52894  -0.56346
O          O       0.20214   0.71778   0.03901  -0.54708
O          O       0.20007   0.71719   0.97107  -0.56471
O          O       0.29733   0.78202   0.03893  -0.54960
O          O       0.29909   0.78377   0.97105  -0.56259
O          O       0.29728   0.71752   0.46077  -0.54717
O          O       0.29922   0.71698   0.52878  -0.56120
O          O       0.96110   0.21811   0.79797  -0.54701
O          O       0.02906   0.21638   0.79976  -0.56275
O          O       0.53921   0.28232   0.79786  -0.54659
O          O       0.47112   0.28278   0.79992  -0.56429
O          O       0.53916   0.21798   0.70259  -0.54615
O          O       0.47113   0.21622   0.70093  -0.56084
O          O       0.96097   0.28240   0.70278  -0.54851
O          O       0.02884   0.28303   0.70078  -0.56590
O          O       0.79797   0.96110   0.21811  -0.54733
O          O       0.79976   0.02906   0.21638  -0.56206
O          O       0.79785   0.53921   0.28233  -0.54626
O          O       0.79992   0.47112   0.28278  -0.56458
O          O       0.70259   0.53916   0.21798  -0.54576
O          O       0.70093   0.47113   0.21622  -0.56131
O          O       0.70278   0.96097   0.28240  -0.54873
O          O       0.70078   0.02884   0.28303  -0.56583
O          O       0.21810   0.79797   0.96110  -0.54740
O          O       0.21638   0.79976   0.02906  -0.56241
O          O       0.28232   0.79785   0.53921  -0.54621
O          O       0.28278   0.79992   0.47112  -0.56470
O          O       0.21798   0.70259   0.53916  -0.54579
O          O       0.21622   0.70093   0.47113  -0.56121
O          O       0.28240   0.70278   0.96097  -0.54872
O          O       0.28303   0.70078   0.02885  -0.56534

