data_crystal

_audit_creation_method 'AiiDA-DDEC plugin'

_cell_length_a        35.03813
_cell_length_b        35.04286
_cell_length_c        35.62670

_cell_angle_alpha     119.45397
_cell_angle_beta     119.45423
_cell_angle_gamma     89.98501

_symmetry_space_group_name_Hall 'P 1'
_symmetry_space_group_name_H-M  'P 1'

loop_
_symmetry_equiv_pos_as_xyz
 'x,y,z'

loop_
_atom_site_label
_atom_site_type_symbol
_atom_site_fract_x
_atom_site_fract_y
_atom_site_fract_z
_atom_site_charge
Cu         Cu      0.77965   0.93342  -0.00004   0.90861
Cu         Cu      0.81144   0.74002   0.77139   0.90899
Cu         Cu      0.28722   0.08711  -0.00000   0.90252
Cu         Cu      0.71278   0.91289   0.00000   0.90274
Cu         Cu      0.95993   0.03146   0.77145   0.90783
Cu         Cu      0.93351   0.22039   0.00001   0.90906
Cu         Cu      0.04237   0.75481   0.70480   0.89671
Cu         Cu      0.03140   0.81151   0.77147   0.91440
Cu         Cu      0.33768   0.05002   0.29524   0.89801
Cu         Cu      0.91286   0.28724  -0.00003   0.90204
Cu         Cu      0.08713   0.71275   0.00003   0.90211
Cu         Cu      0.22034   0.06658   0.00004   0.90893
Cu         Cu      0.25995   0.04007   0.22864   0.90818
Cu         Cu      0.75479   0.66234   0.70477   0.89837
Cu         Cu      0.74004   0.95993   0.77136   0.90823
Cu         Cu      0.06649   0.77961  -0.00001   0.90890
Cu         Cu      0.05009   0.95766   0.29527   0.89694
Cu         Cu      0.95763   0.24519   0.29520   0.89653
Cu         Cu      0.96860   0.18849   0.22852   0.91437
Cu         Cu      0.04007   0.96854   0.22855   0.90813
Cu         Cu      0.66232   0.94999   0.70476   0.89806
Cu         Cu      0.24521   0.33766   0.29523   0.89851
Cu         Cu      0.94991   0.04234   0.70473   0.89701
Cu         Cu      0.18856   0.25998   0.22861   0.90893
H          H       0.58029   0.28266   0.24544   0.12515
H          H       0.23848   0.78583   0.77731   0.14324
H          H       0.27835   0.72598   0.22928   0.10769
H          H       0.20623   0.39233   0.40573   0.13917
H          H       0.73721   0.82175   0.72328   0.14407
H          H       0.18689   0.40511   0.21710   0.13395
H          H       0.58978   0.89900   0.36681   0.12335
H          H       0.10099   0.22292   0.63323   0.12383
H          H       0.71744   0.33486   0.75455   0.12591
H          H       0.53224   0.41035   0.63338   0.12703
H          H       0.24901   0.03483   0.48546   0.14665
H          H       0.41971   0.71735   0.75457   0.12563
H          H       0.59665   0.41683   0.27111   0.12597
H          H       0.66297   0.39946   0.68178   0.12394
H          H       0.93868   0.15416   0.86728   0.14359
H          H       0.79296   0.47078   0.86674   0.12343
H          H       0.66516   0.96295   0.24567   0.12570
H          H       0.35280   0.59772   0.63887   0.12807
H          H       0.39243   0.19974   0.40593   0.13869
H          H       0.71065   0.47215   0.44282   0.10859
H          H       0.45065   0.24898   0.48543   0.14640
H          H       0.89229   0.58625   0.17192   0.12351
H          H       0.72165   0.27402   0.77072   0.10768
H          H       0.28696   0.60292   0.71562   0.12818
H          H       0.28229   0.66296   0.68182   0.12391
H          H       0.96997   0.18821   0.78312   0.13438
H          H       0.70702   0.05267   0.09514   0.14564
H          H       0.57152   0.88742   0.28434   0.12809
H          H       0.33521   0.33276   0.24295   0.14843
H          H       0.42848   0.11259   0.71566   0.12823
H          H       0.91019   0.33518   0.24288   0.14861
H          H       0.66722   0.09245   0.75708   0.14825
H          H       0.71391   0.95881   0.36103   0.12790
H          H       0.40222   0.71386   0.36098   0.12778
H          H       0.58325   0.32570   0.72881   0.12560
H          H       0.59506   0.96985   0.78295   0.13429
H          H       0.01390   0.09867   0.27667   0.14437
H          H       0.76360   0.54950   0.51479   0.14661
H          H       0.95091   0.50337   0.22919   0.10752
H          H       0.27943   0.58557   0.17163   0.12415
H          H       0.85441   0.59686   0.27115   0.12593
H          H       0.81311   0.59489   0.78290   0.13387
H          H       0.01885   0.28229   0.68176   0.12356
H          H       0.05272   0.38813   0.09513   0.14559
H          H       0.38798   0.04251   0.09511   0.14559
H          H       0.40335   0.58317   0.72889   0.12580
H          H       0.47077   0.07385   0.86668   0.12302
H          H       0.54293   0.01327   0.27937   0.10708
H          H       0.05349   0.08985   0.40684   0.14323
H          H       0.40494   0.03015   0.21705   0.13419
H          H       0.95891   0.64717   0.36101   0.12773
H          H       0.77699   0.46767   0.36657   0.12436
H          H       0.77311   0.89052   0.11950   0.13864
H          H       0.49666   0.72167   0.77080   0.10778
H          H       0.58614   0.27964   0.17178   0.12377
H          H       0.96524   0.76353   0.51466   0.14297
H          H       0.26279   0.17825   0.27672   0.14399
H          H       0.08981   0.66483   0.75712   0.14857
H          H       0.14559   0.40314   0.72885   0.12584
H          H       0.47217   0.73220   0.44278   0.10894
H          H       0.72593   0.95095   0.22933   0.10783
H          H       0.95759   0.29312   0.90491   0.14600
H          H       0.60398   0.20709   0.13330   0.12315
H          H       0.33278   0.90755   0.24292   0.14836
H          H       0.41287   0.73635   0.25548   0.12244
H          H       0.99156   0.23848   0.77731   0.14325
H          H       0.26370   0.73403   0.72076   0.10702
H          H       0.73394   0.45704   0.72069   0.10718
H          H       0.22301   0.53233   0.63343   0.12430
H          H       0.18814   0.81319   0.78303   0.13381
H          H       0.73630   0.26597   0.27924   0.10701
H          H       0.46109   0.00849   0.22276   0.14336
H          H       0.60052   0.98119   0.31829   0.12136
H          H       0.76196   0.92081   0.18496   0.14369
H          H       0.98660   0.79372   0.59417   0.13517
H          H       0.31718   0.05348   0.40687   0.14350
H          H       0.35329   0.31707   0.40668   0.14414
H          H       0.33484   0.03706   0.75433   0.12553
H          H       0.01327   0.73649   0.27930   0.10733
H          H       0.80020   0.98651   0.59406   0.13844
H          H       0.33703   0.60054   0.31822   0.12405
H          H       0.98673   0.26352   0.72070   0.10715
H          H       0.84251   0.51918   0.25535   0.12263
H          H       0.03710   0.41970   0.75457   0.12533
H          H       0.34632   0.22912   0.11954   0.14262
H          H       0.22690   0.10949   0.88050   0.13872
H          H       0.04241   0.70689   0.09509   0.14580
H          H       0.46776   0.58965   0.36662   0.12687
H          H       0.03003   0.81179   0.21688   0.13440
H          H       0.09250   0.08983   0.75708   0.14834
H          H       0.61202   0.95750   0.90489   0.14559
H          H       0.29298   0.94733   0.90486   0.14575
H          H       0.71304   0.39708   0.28438   0.12811
H          H       0.54935   0.75103   0.51457   0.14654
H          H       0.89051   0.34624   0.11939   0.13862
H          H       0.19794   0.89384   0.12565   0.14381
H          H       0.90750   0.91017   0.24293   0.14837
H          H       0.96290   0.58031   0.24543   0.12545
H          H       0.04109   0.35284   0.63899   0.12801
H          H       0.73577   0.23795   0.81493   0.14324
H          H       0.15397   0.92845   0.86711   0.14324
H          H       0.68282   0.94652   0.59313   0.14343
H          H       0.65368   0.77088   0.88046   0.14078
H          H       0.39948   0.01881   0.68171   0.12133
H          H       0.75100   0.96518   0.51454   0.14660
H          H       0.19980   0.01349   0.40594   0.13839
H          H       0.60299   0.42860   0.71569   0.12819
H          H       0.41675   0.67431   0.27119   0.12562
H          H       0.10625   0.07230   0.87448   0.14385
H          H       0.41436   0.10784   0.82816   0.12326
H          H       0.28671   0.06130   0.13288   0.14302
H          H       0.91029   0.64676   0.59332   0.14352
H          H       0.84603   0.07156   0.13289   0.14322
H          H       0.94728   0.61188   0.90487   0.14536
H          H       0.32549   0.14560   0.72869   0.12596
H          H       0.58564   0.89216   0.17184   0.12319
H          H       0.97071   0.71067   0.44286   0.10859
H          H       0.23804   0.07919   0.81504   0.14360
H          H       0.17838   0.01401   0.27672   0.14390
H          H       0.82163   0.98599   0.72328   0.14392
H          H       0.15749   0.48082   0.74465   0.12269
H          H       0.89902   0.77709   0.36678   0.12399
H          H       0.92775   0.23170   0.12555   0.14390
H          H       0.39702   0.57140   0.28431   0.12799
H          H       0.57703   0.73581   0.81496   0.14343
H          H       0.28609   0.04119   0.63897   0.12785
H          H       0.92634   0.60422   0.13336   0.12280
H          H       0.26355   0.15740   0.74460   0.12227
H          H       0.50334   0.27833   0.22920   0.10763
H          H       0.03476   0.23648   0.48534   0.14311
H          H       0.88743   0.71308   0.28440   0.12797
H          H       0.28935   0.52785   0.55718   0.10851
H          H       0.77087   0.22683   0.88044   0.13832
H          H       0.60757   0.80026   0.59407   0.13881
H          H       0.41386   0.72036   0.82822   0.12376
H          H       0.90136   0.73719   0.72336   0.14435
H          H       0.11257   0.28692   0.71560   0.12794
H          H       0.10771   0.41375   0.82808   0.12369
H          H       0.76823   0.80201   0.87428   0.14377
H          H       0.71329   0.93871   0.86712   0.14302
H          H       0.09864   0.26281   0.27664   0.14418
H          H       0.66480   0.66725   0.75705   0.14825
H          H       0.89375   0.92770   0.12553   0.14397
H          H       0.58714   0.26365   0.74452   0.12239
H          H       0.28256   0.66514   0.24545   0.12585
H          H       0.73645   0.84260   0.25541   0.12222
H          H       0.51895   0.41283   0.25533   0.12271
H          H       0.98115   0.71771   0.31824   0.12366
H          H       0.21422   0.46103   0.22269   0.14329
H          H       0.52923   0.92615   0.13332   0.12304
H          H       0.64720   0.40229   0.36113   0.12798
H          H       0.67451   0.85440   0.27131   0.12582
H          H       0.80206   0.10616   0.87435   0.14377
H          H       0.81186   0.18681   0.21697   0.13388
H          H       0.92088   0.42296   0.18496   0.14320
H          H       0.52783   0.26781   0.55722   0.10879
H          H       0.07912   0.57704   0.81504   0.14315
H          H       0.06132   0.84584   0.13272   0.14371
H          H       0.78578   0.53898   0.77731   0.14329
H          H       0.27407   0.04905   0.77067   0.10772
H          H       0.48105   0.58717   0.74467   0.12258
H          H       0.73227   0.97068   0.44297   0.10858
H          H       0.64671   0.68293   0.59332   0.14393
H          H       0.22913   0.77317   0.11956   0.13813
H          H       0.79377   0.60767   0.59427   0.13907
H          H       0.26773   0.02933   0.55703   0.10852
H          H       0.26606   0.54297   0.27931   0.10712
H          H       0.07170   0.28692   0.13297   0.14309
H          H       0.20704   0.52922   0.13326   0.12337
H          H       0.94651   0.91015   0.59317   0.14342
H          H       0.98611   0.90133   0.72334   0.14438
H          H       0.04909   0.49664   0.77081   0.10757
H          H       0.76152   0.21417   0.22269   0.14340
H          H       0.26423   0.76205   0.18507   0.14313
H          H       0.39603   0.79292   0.86670   0.12328
H          H       0.07225   0.76830   0.87446   0.14400
H          H       0.53891   0.99151   0.77724   0.14338
H          H       0.08971   0.35325   0.40668   0.14350
H          H       0.41022   0.10100   0.63319   0.12377
H          H       0.72058   0.41444   0.82837   0.12409
H          H       0.07366   0.39578   0.86664   0.12283
H          H       0.02929   0.28933   0.55714   0.10859
H          H       0.59778   0.28615   0.63902   0.12773
H          H       0.45707   0.98674   0.72063   0.10698
H          H       0.23177   0.19799   0.12572   0.14371
H          H       0.92830   0.71309   0.86703   0.14323
H          H       0.00844   0.76152   0.22269   0.14333
H          H       0.10949   0.65377   0.88061   0.13854
H          H       0.42297   0.26419   0.18504   0.14334
H          H       0.23640   0.45050   0.48522   0.14665
H          H       0.71771   0.33704   0.31818   0.12402
H          H       0.01340   0.20629   0.40584   0.13527
C          C       0.70514   0.79835   0.68540  -0.10259
C          C       0.95313   0.16637   0.82112  -0.01236
C          C       0.26815   0.03990   0.31155   0.58438
C          C       0.31570   0.80974   0.81941   0.09706
C          C       0.11068   0.54129   0.77031   0.09351
C          C       0.69092   0.41566   0.72251  -0.18751
C          C       0.61692   0.91195   0.36540  -0.10876
C          C       0.65950   0.22894   0.77018   0.09416
C          C       0.21444   0.48220   0.54093   0.09323
C          C       0.65014   0.33477   0.74102   0.17087
C          C       0.02816   0.32818   0.79675   0.03731
C          C       0.70150   0.11410   0.79257  -0.14718
C          C       0.88188   0.16303   0.21050   0.58653
C          C       0.82623   0.63188   0.61200  -0.17477
C          C       0.31678   0.13291   0.31197   0.58252
C          C       0.13124   0.46758   0.74702  -0.10644
C          C       0.22100   0.09651   0.79652  -0.17491
C          C       0.30482   0.24950   0.33887  -0.01473
C          C       0.18780   0.46608   0.19431  -0.17698
C          C       0.23567   0.54468   0.17365  -0.10834
C          C       0.95779   0.89186   0.61199  -0.14935
C          C       0.66235   0.93500   0.41075   0.04189
C          C       0.54660   0.38316   0.63466  -0.11191
C          C       0.16313   0.32873   0.21059   0.58680
C          C       0.01975   0.11302   0.31457  -0.10232
C          C       0.24960   0.03412   0.33895  -0.01459
C          C       0.33765   0.06500   0.58925   0.04188
C          C       0.45147   0.28372   0.49588  -0.17574
C          C       0.05683   0.33521   0.11080  -0.01139
C          C       0.68586   0.87526   0.26181  -0.17800
C          C       0.77900   0.90349   0.20349  -0.17489
C          C       0.76327   0.00689   0.07000   0.58671
C          C       0.46772   0.61574   0.74702  -0.10658
C          C       0.34501   0.73536   0.24035   0.03975
C          C       0.01990   0.17384   0.38807  -0.17145
C          C       0.28754   0.58618   0.68093  -0.16957
C          C       0.31298   0.05474   0.63766  -0.17932
C          C       0.16004   0.80002   0.07238   0.58447
C          C       0.67144   0.95258   0.78951   0.58631
C          C       0.69708   0.95161   0.40831  -0.12387
C          C       0.32682   0.18414   0.33901  -0.01110
C          C       0.73679   0.77781   0.85874  -0.09823
C          C       0.90898   0.32147   0.20739  -0.14711
C          C       0.32832   0.76864   0.79683   0.03882
C          C       0.04369   0.74229   0.11839  -0.15084
C          C       0.37105   0.76428   0.82633  -0.10860
C          C       0.09102   0.67853   0.79261  -0.14705
C          C       0.06501   0.25164   0.58931   0.04229
C          C       0.08806   0.25150   0.63464  -0.10917
C          C       0.75040   0.96589   0.66105  -0.01446
C          C       0.30849   0.71430   0.23740  -0.12474
C          C       0.28572   0.07107   0.76254  -0.12532
C          C       0.74850   0.45342   0.36534  -0.10985
C          C       0.03408   0.08943   0.33883  -0.01429
C          C       0.24000   0.81034   0.13862  -0.16570
C          C       0.05396   0.77548   0.11073  -0.01212
C          C       0.28877   0.54339   0.59181  -0.12381
C          C       0.65499   0.26465   0.75965   0.03968
C          C       0.31995   0.06397   0.75315  -0.18045
C          C       0.40050   0.03370   0.15578   0.14179
C          C       0.88932   0.45872   0.22970   0.09353
C          C       0.67852   0.70151   0.79254  -0.14651
C          C       0.89866   0.32821   0.13855  -0.16617
C          C       0.46855   0.02818   0.79676   0.03781
C          C       0.18418   0.01222   0.33899  -0.01059
C          C       0.48220   0.32659   0.54098   0.09245
C          C       0.17908   0.91454   0.85988  -0.10626
C          C       0.09472   0.28752   0.68092  -0.16952
C          C       0.90352   0.42444   0.20346  -0.17429
C          C       0.12210   0.40060   0.15577   0.14241
C          C       0.25543   0.28028   0.21251   0.58394
C          C       0.98644   0.70361   0.25531  -0.12260
C          C       0.80094   0.15034   0.18700  -0.17233
C          C       0.47570   0.66228   0.41071   0.04194
C          C       0.46607   0.00655   0.19435  -0.17648
C          C       0.71557   0.16187   0.81649   0.13862
C          C       0.34944   0.68655   0.75223   0.17493
C          C       0.83809   0.89910   0.18348   0.13900
C          C       0.24484   0.87797   0.84425   0.14241
C          C       0.91902   0.61899   0.19537  -0.17838
C          C       0.37713   0.26214   0.41274   0.14000
C          C       0.68702   0.94526   0.36234  -0.17923
C          C       0.74240   0.07471   0.11843  -0.15058
C          C       0.74458   0.71972   0.78750   0.58392
C          C       0.62287   0.73786   0.58726   0.14186
C          C       0.54340   0.30304   0.59180  -0.12446
C          C       0.84512   0.67320   0.66105  -0.01172
C          C       0.44822   0.01357   0.74468  -0.12189
C          C       0.49620   0.99029   0.18063   0.09565
C          C       0.30673   0.06318   0.07008   0.58625
C          C       0.81029   0.89867   0.13860  -0.16598
C          C       0.03990   0.04346   0.31146   0.58541
C          C       0.38110   0.72361   0.80469  -0.17872
C          C       0.12467   0.42399   0.73822  -0.17845
C          C       0.62895   0.23572   0.17367  -0.10868
C          C       0.45866   0.34046   0.22978   0.09289
C          C       0.71981   0.73291   0.81413  -0.01569
C          C       0.01220   0.15494   0.33901  -0.01182
C          C       0.00654   0.72817   0.19428  -0.17726
C          C       0.97184   0.67182   0.20325   0.03739
C          C       0.04438   0.21222   0.49586  -0.17175
C          C       0.82092   0.08546   0.14012  -0.10636
C          C       0.32821   0.24000   0.13860  -0.17003
C          C       0.10809   0.34577   0.38796  -0.14986
C          C       0.99306   0.69323   0.92999   0.58627
C          C       0.96341   0.19910   0.81306  -0.17312
C          C       0.06558   0.34936   0.75218   0.16855
C          C       0.09082   0.40618   0.74093   0.16522
C          C       0.68928   0.31998   0.75329  -0.18102
C          C       0.34583   0.27998   0.38800  -0.14975
C          C       0.19906   0.84966   0.81300  -0.17248
C          C       0.42441   0.30003   0.20352  -0.17434
C          C       0.63186   0.78566   0.61194  -0.17475
C          C       0.72813   0.18771   0.19428  -0.17775
C          C       0.77560   0.05678   0.11076  -0.01212
C          C       0.78563   0.98007   0.61194  -0.17375
C          C       0.00694   0.30677   0.07001   0.58678
C          C       0.00972   0.31565   0.81943   0.09694
C          C       0.33510   0.05401   0.11081  -0.01171
C          C       0.76859   0.46854   0.79679   0.03810
C          C       0.65468   0.71558   0.81648   0.13915
C          C       0.78556   0.51780   0.45907   0.09321
C          C       0.08088   0.73684   0.85880  -0.09844
C          C       0.10134   0.67180   0.86145  -0.16633
C          C       0.80963   0.50375   0.81934   0.09652
C          C       0.09648   0.57556   0.79654  -0.17430
C          C       0.26321   0.22220   0.14126  -0.09845
C          C       0.57559   0.69997   0.79648  -0.17387
C          C       0.07810   0.32452   0.68292   0.16381
C          C       0.92893   0.52315   0.23744  -0.12510
C          C       0.76001   0.18966   0.86138  -0.16561
C          C       0.91880   0.28015   0.18580  -0.01542
C          C       0.32148   0.29850   0.20746  -0.14639
C          C       0.96010   0.95654   0.68854   0.58521
C          C       0.28019   0.26709   0.18587  -0.01562
C          C       0.61576   0.27943   0.74703  -0.10645
C          C       0.81582   0.98778   0.66102  -0.01065
C          C       0.70345   0.26885   0.25522  -0.12277
C          C       0.28028   0.95706   0.21251   0.58442
C          C       0.00485   0.82092   0.68806   0.58321
C          C       0.21437   0.01994   0.38806  -0.17385
C          C       0.27187   0.81229   0.80572  -0.17777
C          C       0.86791   0.65469   0.82100  -0.01247
C          C       0.89535   0.50500   0.24034   0.03999
C          C       0.22440   0.94322   0.88924  -0.01212
C          C       0.30292   0.04839   0.59169  -0.12388
C          C       0.35827   0.07809   0.68282   0.16260
C          C       0.38594   0.03661   0.18701  -0.17158
C          C       0.73185   0.96010   0.68845   0.58450
C          C       0.72839   0.73196   0.68853   0.58403
C          C       0.88701   0.70517   0.68547  -0.10281
C          C       0.45340   0.61684   0.36534  -0.11187
C          C       0.93605   0.56676   0.24679  -0.18080
C          C       0.31338   0.59721   0.24774   0.17489
C          C       0.95252   0.11817   0.78951   0.58595
C          C       0.32455   0.60479   0.68293   0.16899
C          C       0.87533   0.57601   0.26179  -0.17840
C          C       0.34986   0.66523   0.25898   0.17086
C          C       0.73532   0.89535   0.24033   0.03987
C          C       0.96845   0.69325   0.27753  -0.18672
C          C       0.68430   0.19026   0.18060   0.09743
C          C       0.96436   0.84928   0.58724   0.14042
C          C       0.15066   0.37710   0.41271   0.14067
C          C       0.92523   0.62396   0.88156  -0.15087
C          C       0.53393   0.99345   0.80565  -0.17636
C          C       0.54134   0.65954   0.77022   0.09286
C          C       0.93443   0.65065   0.24782   0.16843
C          C       0.91059   0.69526   0.66119  -0.01353
C          C       0.22220   0.87800   0.14127  -0.09881
C          C       0.07477   0.37605   0.11844  -0.15103
C          C       0.04748   0.88183   0.21049   0.58576
C          C       0.39328   0.09470   0.68086  -0.16854
C          C       0.80002   0.91235   0.07239   0.58532
C          C       0.25150   0.54658   0.63466  -0.10990
C          C       0.06197   0.37091   0.82626  -0.10731
C          C       0.13209   0.34532   0.17901  -0.01230
C          C       0.84959   0.61392   0.81295  -0.17277
C          C       0.71428   0.92894   0.23746  -0.12530
C          C       0.67319   0.81586   0.66099  -0.01105
C          C       0.61406   0.96339   0.81299  -0.17161
C          C       0.30007   0.77907   0.20355  -0.17379
C          C       0.73782   0.96434   0.58723   0.13954
C          C       0.66491   0.94600   0.88919  -0.01163
C          C       0.61890   0.27640   0.19531  -0.17865
C          C       0.45660   0.69697   0.40820  -0.12443
C          C       0.25158   0.52428   0.58928   0.04202
C          C       0.03368   0.75512   0.15571   0.14218
C          C       0.61355   0.31424   0.73827  -0.17797
C          C       0.04346   0.27155   0.31141   0.58466
C          C       0.19998   0.08765   0.92761   0.58551
C          C       0.26468   0.10465   0.75967   0.03969
C          C       0.26711   0.90564   0.18586  -0.01520
C          C       0.59374   0.34998   0.25905   0.17289
C          C       0.91194   0.74850   0.36536  -0.10929
C          C       0.08098   0.38101   0.80463  -0.17837
C          C       0.13294   0.99511   0.31187   0.58282
C          C       0.31907   0.05464   0.14011  -0.10513
C          C       0.62405   0.95628   0.88154  -0.15076
C          C       0.93499   0.74836   0.41069   0.04242
C          C       0.01357   0.29640   0.74469  -0.12265
C          C       0.50380   0.00971   0.81937   0.09554
C          C       0.53146   0.97182   0.20324   0.03780
C          C       0.31072   0.68003   0.24672  -0.18108
C          C       0.72770   0.83990   0.92770   0.58402
C          C       0.74842   0.47572   0.41072   0.04218
C          C       0.21218   0.45143   0.49580  -0.17606
C          C       0.17906   0.31676   0.31191   0.58271
C          C       0.52309   0.30857   0.23745  -0.12461
C          C       0.60672   0.90530   0.31914  -0.16851
C          C       0.55178   0.98643   0.25533  -0.12185
C          C       0.38424   0.72058   0.25297  -0.10629
C          C       0.90918   0.59382   0.25907   0.16517
C          C       0.68093   0.94536   0.85989  -0.10519
C          C       0.98026   0.88698   0.68543  -0.10246
C          C       0.28375   0.04441   0.49587  -0.17671
C          C       0.08941   0.30474   0.33881  -0.01382
C          C       0.09434   0.08117   0.81411  -0.01493
C          C       0.68663   0.40279   0.75226   0.17481
C          C       0.06316   0.76313   0.07003   0.58632
C          C       0.04290   0.06769   0.78741   0.58244
C          C       0.66529   0.90911   0.25908   0.16484
C          C       0.69151   0.28570   0.76261  -0.12475
C          C       0.36814   0.21434   0.38806  -0.17411
C          C       0.95710   0.93231   0.21259   0.58266
C          C       0.16631   0.86798   0.82105  -0.01263
C          C       0.67532   0.41702   0.36224  -0.17924
C          C       0.28007   0.04224   0.38809  -0.14913
C          C       0.58435   0.96845   0.27757  -0.18578
C          C       0.47691   0.69143   0.76255  -0.12439
C          C       0.32856   0.04742   0.21049   0.58638
C          C       0.28443   0.83813   0.18351   0.13855
C          C       0.99346   0.27183   0.80572  -0.17755
C          C       0.65487   0.95315   0.82110  -0.01393
C          C       0.11412   0.09100   0.79256  -0.14703
C          C       0.34050   0.77107   0.22983   0.09391
C          C       0.42357   0.08105   0.80462  -0.17831
C          C       0.15042   0.38609   0.18706  -0.17279
C          C       0.59950   0.96630   0.84422   0.14177
C          C       0.23141   0.53147   0.20321   0.03808
C          C       0.96592   0.91058   0.66117  -0.01402
C          C       0.69327   0.93683   0.92993   0.58607
C          C       0.60484   0.35839   0.68293   0.16859
C          C       0.67545   0.39522   0.31707   0.16918
C          C       0.94317   0.66480   0.88920  -0.01132
C          C       0.64173   0.92192   0.31718   0.16260
C          C       0.08766   0.72771   0.92766   0.58508
C          C       0.67179   0.76000   0.86140  -0.16827
C          C       0.87801   0.91912   0.14127  -0.09851
C          C       0.15488   0.32681   0.33896  -0.01172
C          C       0.11812   0.83697   0.78951   0.58688
C          C       0.68322   0.86709   0.68803   0.58239
C          C       0.31414   0.12474   0.73819  -0.17789
C          C       0.67168   0.23137   0.20317   0.03854
C          C       0.79827   0.98021   0.68538  -0.10226
C          C       0.95160   0.71118   0.40819  -0.12430
C          C       0.83996   0.19999   0.92762   0.58450
C          C       0.81220   0.53393   0.80569  -0.17700
C          C       0.18971   0.10133   0.86140  -0.16599
C          C       0.11299   0.29483   0.31453  -0.10269
C          C       0.30684   0.69091   0.72253  -0.18756
C          C       0.03155   0.30675   0.72247  -0.18684
C          C       0.29486   0.20166   0.31460  -0.10259
C          C       0.08121   0.71985   0.81420  -0.01544
C          C       0.78782   0.54858   0.50420  -0.17614
C          C       0.98010   0.82617   0.61193  -0.17148
C          C       0.59726   0.93441   0.24787   0.16951
C          C       0.04687   0.83363   0.17888  -0.01224
C          C       0.53228   0.38426   0.25298  -0.10662
C          C       0.27937   0.13127   0.74702  -0.10610
C          C       0.10465   0.49500   0.75966   0.04005
C          C       0.03564   0.15072   0.41276   0.14054
C          C       0.27631   0.57639   0.19526  -0.17945
C          C       0.27161   0.26805   0.31147   0.58413
C          C       0.71123   0.45661   0.40819  -0.12407
C          C       0.45530   0.06203   0.82627  -0.10776
C          C       0.79146   0.16971   0.88211  -0.01411
C          C       0.51780   0.67342   0.45902   0.09247
C          C       0.41565   0.03155   0.72243  -0.18581
C          C       0.27230   0.16010   0.07230   0.58425
C          C       0.41379   0.60662   0.31907  -0.16919
C          C       0.69994   0.22093   0.79645  -0.17380
C          C       0.92190   0.67548   0.31708   0.16368
C          C       0.38645   0.68576   0.26173  -0.17811
C          C       0.89191   0.65423   0.61205  -0.14995
C          C       0.84934   0.62290   0.58729   0.14070
C          C       0.26888   0.55180   0.25528  -0.12216
C          C       0.29655   0.73116   0.74478  -0.12289
C          C       0.95654   0.72846   0.68859   0.58452
C          C       0.91912   0.26317   0.14120  -0.09857
C          C       0.54470   0.93797   0.17373  -0.10789
C          C       0.03659   0.80090   0.18694  -0.17316
C          C       0.04840   0.28883   0.59182  -0.12414
C          C       0.90566   0.91883   0.18589  -0.01486
C          C       0.32659   0.05878   0.54097   0.09280
C          C       0.05474   0.32470   0.63778  -0.17926
C          C       0.68005   0.93603   0.24685  -0.18044
C          C       0.16191   0.10090   0.81652   0.13912
C          C       0.96633   0.24488   0.84429   0.14214
C          C       0.91234   0.27229   0.07234   0.58501
C          C       0.34532   0.28442   0.18352   0.13909
C          C       0.26219   0.03566   0.41277   0.13946
C          C       0.95562   0.78779   0.50415  -0.17186
C          C       0.40274   0.06560   0.75213   0.16946
C          C       0.20173   0.01980   0.31462  -0.10219
C          C       0.69518   0.75050   0.66113  -0.01469
C          C       0.09064   0.71248   0.88216  -0.01420
C          C       0.76433   0.45532   0.82635  -0.10829
C          C       0.65417   0.72002   0.61201  -0.15041
C          C       0.52430   0.33773   0.58929   0.04188
C          C       0.73289   0.09436   0.81415  -0.01533
C          C       0.77780   0.12200   0.85873  -0.09871
C          C       0.50492   0.34504   0.24038   0.04024
C          C       0.20855   0.83029   0.11789  -0.01395
C          C       0.05464   0.82082   0.14006  -0.10604
C          C       0.83028   0.90937   0.11791  -0.01497
C          C       0.75516   0.12203   0.15575   0.14228
C          C       0.34513   0.04686   0.17890  -0.01402
C          C       0.22901   0.11067   0.77025   0.09383
C          C       0.98780   0.84507   0.66099  -0.01182
C          C       0.95631   0.25771   0.88161  -0.15087
C          C       0.86706   0.00489   0.68813   0.58278
C          C       0.93228   0.25542   0.21248   0.58324
C          C       0.37595   0.04373   0.11846  -0.15068
C          C       0.90528   0.71249   0.31909  -0.16944
C          C       0.04221   0.10814   0.38801  -0.14927
C          C       0.86876   0.53243   0.25298  -0.10651
C          C       0.94526   0.67530   0.36222  -0.17906
C          C       0.54853   0.71628   0.50412  -0.17556
C          C       0.69316   0.30909   0.27747  -0.18756
C          C       0.94536   0.17919   0.85994  -0.10616
C          C       0.83688   0.67128   0.78941   0.58681
C          C       0.65056   0.31345   0.24777   0.17490
C          C       0.73112   0.44820   0.74473  -0.12218
C          C       0.72063   0.86873   0.25298  -0.10639
C          C       0.07107   0.47685   0.76256  -0.12514
C          C       0.93803   0.62909   0.17374  -0.10747
C          C       0.41698   0.68689   0.36223  -0.17858
C          C       0.99515   0.17908   0.31194   0.58316
C          C       0.56670   0.31085   0.24679  -0.18150
C          C       0.71246   0.79144   0.88214  -0.01370
C          C       0.94604   0.22453   0.88927  -0.01202
C          C       0.33471   0.09090   0.74092   0.16461
C          C       0.25760   0.92529   0.88157  -0.15049
C          C       0.06395   0.43324   0.75321  -0.18081
C          C       0.49508   0.65496   0.75962   0.04016
C          C       0.72370   0.42361   0.80474  -0.17951
C          C       0.87790   0.59941   0.84423   0.14238
C          C       0.90936   0.28752   0.11784  -0.01427
C          C       0.77099   0.88933   0.22975   0.09378
C          C       0.91446   0.68076   0.85984  -0.10594
C          C       0.29850   0.88590   0.20743  -0.14707
C          C       0.99028   0.68436   0.18057   0.09698
C          C       0.71972   0.04294   0.78749   0.58440
C          C       0.82095   0.68324   0.68809   0.58282
C          C       0.32468   0.58298   0.63776  -0.17916
C          C       0.28754   0.20856   0.11786  -0.01366
C          C       0.30908   0.58434   0.27749  -0.18757
C          C       0.16972   0.09063   0.88209  -0.01500
C          C       0.12199   0.08088   0.85873  -0.09841
C          C       0.17377   0.36813   0.38800  -0.17472
C          C       0.67341   0.94122   0.45903   0.09268
C          C       0.39516   0.64161   0.31707   0.16872
C          C       0.05872   0.21447   0.54098   0.09234
C          C       0.23673   0.99311   0.93001   0.58660
C          C       0.08554   0.31925   0.14017  -0.10611
C          C       0.58302   0.31311   0.63778  -0.17877
C          C       0.57587   0.38653   0.26176  -0.17900
C          C       0.58621   0.39338   0.68093  -0.16906
C          C       0.42413   0.61347   0.73824  -0.17906
C          C       0.83370   0.13203   0.17895  -0.01248
C          C       0.43330   0.68916   0.75321  -0.18201
C          C       0.71993   0.95776   0.61191  -0.14926
C          C       0.06772   0.74458   0.78752   0.58311
C          C       0.71246   0.41383   0.31907  -0.16956
C          C       0.93684   0.23688   0.92997   0.58644
C          C       0.88588   0.90900   0.20745  -0.14711
C          C       0.71625   0.95559   0.50413  -0.17630
C          C       0.57643   0.91896   0.19538  -0.17843
C          C       0.38308   0.08805   0.63460  -0.10916
C          C       0.40626   0.65002   0.74095   0.17281
C          C       0.89913   0.34533   0.18346   0.13938
C          C       0.19037   0.49625   0.18067   0.09652
C          C       0.10087   0.65467   0.81654   0.13949
C          C       0.94128   0.78553   0.45903   0.09235
N          N       0.60012   0.63890   0.76826  -0.12042
N          N       0.91704   0.63925   0.27073  -0.12359
N          N       0.01893   0.72165   0.16126   0.14266
N          N       0.13083   0.55797   0.75413  -0.20459
N          N       0.05983   0.14724   0.48746  -0.11050
N          N       0.85764   0.56039   0.83871   0.14195
N          N       0.63885   0.16822   0.76821  -0.12051
N          N       0.61133   0.68629   0.79449   0.14243
N          N       0.99322   0.65312   0.13976  -0.20026
N          N       0.83172   0.87062   0.23173  -0.12072
N          N       0.63918   0.35376   0.27069  -0.14250
N          N       0.14719   0.42762   0.48741  -0.11022
N          N       0.10815   0.61127   0.79452   0.14210
N          N       0.00678   0.34689   0.86024  -0.19964
N          N       0.34692   0.85348   0.86017  -0.19944
N          N       0.14236   0.43961   0.16129   0.14199
N          N       0.81675   0.89181   0.20552   0.14287
N          N       0.35368   0.63149   0.27068  -0.14215
N          N       0.17023   0.41802   0.46331   0.14349
N          N       0.27836   0.85772   0.83871   0.14205
N          N       0.72164   0.14229   0.16129   0.14224
N          N       0.18325   0.10820   0.79448   0.14262
N          N       0.32483   0.88259   0.87208  -0.10883
N          N       0.68624   0.18321   0.79444   0.14270
N          N       0.06777   0.17397   0.53383  -0.19930
N          N       0.82607   0.53398   0.46622  -0.20001
N          N       0.65969   0.94016   0.51256  -0.11041
N          N       0.42760   0.34027   0.48739  -0.11039
N          N       0.43955   0.01898   0.16134   0.14233
N          N       0.16829   0.12938   0.76827  -0.12041
N          N       0.63156   0.91701   0.27079  -0.12357
N          N       0.93223   0.82603   0.46617  -0.19920
N          N       0.04532   0.17029   0.46337   0.14331
N          N       0.14664   0.48677   0.13992  -0.19901
N          N       0.01045   0.67520   0.12788  -0.10884
N          N       0.86918   0.44203   0.24587  -0.20434
N          N       0.17394   0.46602   0.53378  -0.19991
N          N       0.31376   0.81680   0.20555   0.14265
N          N       0.48666   0.99331   0.13988  -0.19914
N          N       0.55805   0.62323   0.75406  -0.20457
N          N       0.54732   0.98946   0.87200  -0.10926
N          N       0.46600   0.35992   0.53377  -0.19874
N          N       0.95468   0.82972   0.53663   0.14343
N          N       0.98955   0.32480   0.87212  -0.10897
N          N       0.45268   0.01055   0.12801  -0.10923
N          N       0.64632   0.36852   0.72933  -0.14209
N          N       0.85281   0.57238   0.51259  -0.10992
N          N       0.80383   0.86917   0.24593  -0.20422
N          N       0.85337   0.51324   0.86008  -0.19939
N          N       0.70682   0.95467   0.53664   0.14401
N          N       0.36116   0.83178   0.23179  -0.12011
N          N       0.51335   0.00669   0.86012  -0.19908
N          N       0.19617   0.13083   0.75407  -0.20417
N          N       0.35995   0.06782   0.53383  -0.19872
N          N       0.53400   0.64009   0.46623  -0.19926
N          N       0.87067   0.39997   0.23170  -0.11963
N          N       0.37683   0.80391   0.24601  -0.20496
N          N       0.98107   0.27835   0.83875   0.14264
N          N       0.38868   0.31372   0.20551   0.14245
N          N       0.39988   0.36110   0.23174  -0.12044
N          N       0.36844   0.08299   0.72921  -0.12333
N          N       0.29318   0.04534   0.46337   0.14413
N          N       0.44195   0.37677   0.24594  -0.20400
N          N       0.89184   0.38873   0.20548   0.14213
N          N       0.58196   0.70686   0.53667   0.14288
N          N       0.94017   0.85277   0.51254  -0.11027
N          N       0.12933   0.60003   0.76830  -0.11928
N          N       0.62318   0.19610   0.75400  -0.20508
N          N       0.36082   0.64624   0.72931  -0.14242
N          N       0.88250   0.54723   0.87204  -0.10910
N          N       0.08296   0.36075   0.72927  -0.12365
N          N       0.57240   0.65973   0.51262  -0.11039
N          N       0.56045   0.98102   0.83866   0.14222
N          N       0.34032   0.05985   0.48744  -0.11021
N          N       0.41805   0.29314   0.46333   0.14338
N          N       0.11751   0.45277   0.12796  -0.10945
N          N       0.64005   0.93218   0.46618  -0.19879
N          N       0.67517   0.11741   0.12792  -0.10923
N          N       0.65308   0.14652   0.13983  -0.19970
N          N       0.82977   0.58198   0.53669   0.14345
O          O       0.21773   0.25015   0.19038  -0.53658
O          O       0.27553   0.10798   0.27178  -0.53385
O          O       0.28380   0.31183   0.33347  -0.53076
O          O       0.23554   0.13180   0.05479  -0.52413
O          O       0.18067   0.07663   0.94493  -0.52501
O          O       0.10797   0.99627   0.27174  -0.53405
O          O       0.98142   0.93610   0.25601  -0.53207
O          O       0.00373   0.83612   0.72821  -0.53517
O          O       0.07578   0.72735   0.05421  -0.52221
O          O       0.13166   0.81931   0.05503  -0.52441
O          O       0.94233   0.20991   0.94543  -0.54361
O          O       0.15072   0.75709   0.05522  -0.55036
O          O       0.79715   0.64237   0.74851  -0.54138
O          O       0.65004   0.88185   0.66931  -0.53955
O          O       0.23383   0.23842   0.26776  -0.53386
O          O       0.97845   0.32668   0.05416  -0.52274
O          O       0.04677   0.90713   0.19389  -0.53153
O          O       0.06007   0.78249   0.80986  -0.53797
O          O       0.35750   0.04858   0.25139  -0.54087
O          O       0.00297   0.73567   0.94551  -0.54310
O          O       0.75708   0.90451   0.05522  -0.55038
O          O       0.02180   0.28368   0.33356  -0.53054
O          O       0.71343   0.95365   0.80628  -0.53187
O          O       0.68807   0.95030   0.66645  -0.53067
O          O       0.67335   0.92433   0.94586  -0.52232
O          O       0.02156   0.67332   0.94583  -0.52267
O          O       0.21255   0.34993   0.33067  -0.53931
O          O       0.31192   0.04969   0.33354  -0.53050
O          O       0.99703   0.26433   0.05450  -0.54368
O          O       0.79021   0.99692   0.05450  -0.54363
O          O       0.24292   0.09550   0.94478  -0.55022
O          O       0.07660   0.76433   0.94498  -0.52477
O          O       0.81932   0.92336   0.05506  -0.52476
O          O       0.05767   0.79009   0.05457  -0.54326
O          O       0.72747   0.97845   0.05412  -0.52223
O          O       0.20285   0.35764   0.25150  -0.54114
O          O       0.89377   0.20295   0.25112  -0.54183
O          O       0.06404   0.72552   0.74416  -0.53200
O          O       0.20980   0.00308   0.94552  -0.54367
O          O       0.72447   0.89202   0.72822  -0.53376
O          O       0.84928   0.24291   0.94478  -0.54997
O          O       0.05014   0.02191   0.33373  -0.53061
O          O       0.93993   0.21751   0.19014  -0.53821
O          O       0.85254   0.71327   0.80622  -0.53238
O          O       0.26433   0.05780   0.05469  -0.54358
O          O       0.67989   0.01866   0.74437  -0.53344
O          O       0.14746   0.28673   0.19378  -0.53270
O          O       0.90447   0.29805   0.05516  -0.55019
O          O       0.94986   0.97809   0.66626  -0.53042
O          O       0.34996   0.11815   0.33070  -0.53950
O          O       0.98059   0.21249   0.33061  -0.53915
O          O       0.74989   0.02736   0.80960  -0.53639
O          O       0.02927   0.23383   0.26758  -0.53617
O          O       0.73568   0.94222   0.94533  -0.54320
O          O       0.76151   0.96607   0.73219  -0.53392
O          O       0.71621   0.68817   0.66652  -0.53101
O          O       0.64251   0.95143   0.74862  -0.54091
O          O       0.29819   0.15073   0.05528  -0.55096
O          O       0.86834   0.18069   0.94496  -0.52461
O          O       0.96643   0.97088   0.73252  -0.53542
O          O       0.32012   0.98134   0.25562  -0.53341
O          O       0.97074   0.76617   0.73242  -0.53604
O          O       0.09553   0.70195   0.94484  -0.55050
O          O       0.92422   0.27265   0.94580  -0.52211
O          O       0.70182   0.84927   0.94473  -0.55082
O          O       0.72572   0.67990   0.74436  -0.53334
O          O       0.01941   0.78752   0.66939  -0.53934
O          O       0.04826   0.89377   0.25117  -0.54161
O          O       0.25010   0.97264   0.19041  -0.53649
O          O       0.02733   0.06019   0.80983  -0.53632
O          O       0.97820   0.71633   0.66644  -0.53068
O          O       0.27252   0.02155   0.94588  -0.52203
O          O       0.90718   0.14715   0.19390  -0.53317
O          O       0.76617   0.76158   0.73224  -0.53353
O          O       0.83621   0.72447   0.72829  -0.53368
O          O       0.97267   0.93983   0.19017  -0.53643
O          O       0.27428   0.32011   0.25564  -0.53304
O          O       0.88180   0.01951   0.66952  -0.53958
O          O       0.03358   0.02913   0.26749  -0.53538
O          O       0.78227   0.74985   0.80962  -0.53629
O          O       0.89203   0.00372   0.72826  -0.53409
O          O       0.32665   0.07567   0.05414  -0.52209
O          O       0.16380   0.27553   0.27171  -0.53387
O          O       0.09282   0.85285   0.80610  -0.53308
O          O       0.11820   0.98050   0.33049  -0.53970
O          O       0.99628   0.16388   0.27179  -0.53531
O          O       0.95175   0.10624   0.74883  -0.54154
O          O       0.93596   0.27448   0.25584  -0.53182
O          O       0.95322   0.09287   0.80611  -0.53164
O          O       0.92339   0.23567   0.05502  -0.52493
O          O       0.78745   0.65007   0.66933  -0.53961
O          O       0.76446   0.86820   0.94520  -0.52391
O          O       0.28657   0.04634   0.19372  -0.53195
O          O       0.10623   0.79705   0.74889  -0.54229
O          O       0.01857   0.06389   0.74399  -0.53185
O          O       0.23849   0.03394   0.26782  -0.53392

