data_crystal

_audit_creation_method 'AiiDA-DDEC plugin'

_cell_length_a        20.58146
_cell_length_b        27.02487
_cell_length_c        27.02493

_cell_angle_alpha     100.31713
_cell_angle_beta     90.00045
_cell_angle_gamma     89.99955

_symmetry_space_group_name_Hall 'P 1'
_symmetry_space_group_name_H-M  'P 1'

loop_
_symmetry_equiv_pos_as_xyz
 'x,y,z'

loop_
_atom_site_label
_atom_site_type_symbol
_atom_site_fract_x
_atom_site_fract_y
_atom_site_fract_z
_atom_site_charge
Cd         Cd      0.61309   0.45858   0.54142   0.66294
Cd         Cd      0.68205   0.78227   0.21772   0.63104
Cd         Cd      0.95620   0.58091   0.91411   0.63663
Cd         Cd      0.45623   0.41910   0.08588   0.63643
Cd         Cd      0.63778   0.87988   0.12012   0.63175
Cd         Cd      0.31786   0.66540   0.83117   0.63012
Cd         Cd      0.95620   0.08588   0.41909   0.63661
Cd         Cd      0.58982   0.97762   0.02237   0.63545
Cd         Cd      0.13738   0.13555   0.38063   0.62807
Cd         Cd      0.45623   0.91412   0.58090   0.63640
Cd         Cd      0.18207   0.21772   0.78228   0.63072
Cd         Cd      0.13738   0.61936   0.86445   0.62807
Cd         Cd      0.12924   0.64053   0.35947   0.62829
Cd         Cd      0.31786   0.16883   0.33460   0.63014
Cd         Cd      0.11312   0.54142   0.45858   0.66313
Cd         Cd      0.63738   0.38063   0.13555   0.62809
Cd         Cd      0.62922   0.35947   0.64053   0.62820
Cd         Cd      0.68409   0.26428   0.73572   0.63098
Cd         Cd      0.18407   0.73572   0.26428   0.63095
Cd         Cd      0.81782   0.33460   0.16884   0.63003
Cd         Cd      0.08985   0.02237   0.97763   0.63556
Cd         Cd      0.81782   0.83116   0.66539   0.63003
Cd         Cd      0.63738   0.86445   0.61936   0.62807
Cd         Cd      0.13773   0.12012   0.87988   0.63166
H          H       0.92235   0.46756   0.88519   0.08089
H          H       0.91371   0.92318   0.07682   0.13802
H          H       0.94367   0.44763   0.04903   0.12964
H          H       0.85142   0.22123   0.13252   0.08109
H          H       0.34239   0.90436   0.67435   0.08115
H          H       0.57746   0.65897   0.55541   0.13909
H          H       0.76967   0.04000   0.26480   0.13495
H          H       0.36252   0.28083   0.37243   0.08035
H          H       0.02648   0.06913   0.08503   0.08353
H          H       0.93432   0.43080   0.33875   0.13500
H          H       0.81959   0.04587   0.44574   0.08714
H          H       0.49723   0.49800   0.00514   0.09922
H          H       0.21550   0.14868   0.58179   0.13700
H          H       0.36252   0.62757   0.71917   0.08027
H          H       0.52305   0.29391   0.89816   0.13095
H          H       0.01387   0.24983   0.25416   0.14018
H          H       0.27540   0.25072   0.26115   0.09859
H          H       0.43195   0.07500   0.33932   0.08129
H          H       0.05581   0.43434   0.46621   0.08996
H          H       0.74723   0.15867   0.68769   0.08511
H          H       0.35188   0.59677   0.16632   0.12943
H          H       0.07746   0.55540   0.65896   0.13914
H          H       0.51388   0.25415   0.24982   0.14025
H          H       0.06072   0.74237   0.18889   0.07765
H          H       0.42129   0.37694   0.97332   0.08070
H          H       0.25875   0.49730   0.99283   0.13895
H          H       0.74962   0.14283   0.04869   0.12991
H          H       0.83805   0.17456   0.41705   0.08350
H          H       0.31960   0.95413   0.55425   0.08706
H          H       0.71343   0.98449   0.94533   0.07532
H          H       0.24963   0.85718   0.95132   0.13001
H          H       0.24963   0.04868   0.14282   0.13003
H          H       0.05581   0.53378   0.56565   0.08997
H          H       0.26966   0.26480   0.04001   0.13500
H          H       0.52010   0.80038   0.38035   0.13140
H          H       0.49872   0.50817   0.78980   0.13408
H          H       0.42129   0.02668   0.62306   0.08067
H          H       0.85216   0.91318   0.31911   0.12794
H          H       0.42235   0.88518   0.46754   0.08075
H          H       0.92131   0.62306   0.02667   0.08073
H          H       0.33807   0.82543   0.58295   0.08336
H          H       0.02305   0.89816   0.29391   0.13107
H          H       0.92235   0.11480   0.53244   0.08092
H          H       0.02305   0.70609   0.10184   0.13114
H          H       0.52305   0.10184   0.70609   0.13096
H          H       0.94367   0.95097   0.55237   0.12957
H          H       0.23846   0.46780   0.41689   0.09229
H          H       0.49872   0.21019   0.49183   0.13417
H          H       0.42235   0.53246   0.11482   0.08077
H          H       0.74409   0.67315   0.17426   0.08462
H          H       0.76348   0.22930   0.47732   0.13510
H          H       0.73845   0.53219   0.58311   0.09234
H          H       0.56071   0.18890   0.74237   0.07747
H          H       0.05762   0.22615   0.70858   0.07272
H          H       0.93196   0.33933   0.07500   0.08136
H          H       0.71550   0.58180   0.14869   0.13701
H          H       0.02010   0.19961   0.61965   0.13130
H          H       0.55581   0.46621   0.43434   0.08990
H          H       0.44571   0.74211   0.25789   0.12851
H          H       0.85189   0.40323   0.83369   0.12960
H          H       0.00516   0.28088   0.01716   0.13525
H          H       0.76348   0.52267   0.77070   0.13512
H          H       0.26572   0.60985   0.62325   0.13197
H          H       0.86252   0.37243   0.28083   0.08021
H          H       0.55451   0.17473   0.10357   0.13625
H          H       0.83004   0.80069   0.19931   0.09723
H          H       0.76572   0.62325   0.60986   0.13208
H          H       0.45423   0.69973   0.80076   0.08963
H          H       0.05453   0.10357   0.17474   0.13625
H          H       0.84241   0.67436   0.90436   0.08117
H          H       0.74781   0.70973   0.29027   0.09415
H          H       0.93432   0.66125   0.56919   0.13507
H          H       0.82881   0.01819   0.98181   0.12721
H          H       0.33807   0.41705   0.17457   0.08344
H          H       0.35214   0.08681   0.68089   0.12781
H          H       0.42533   0.57046   0.84310   0.08021
H          H       0.26966   0.95999   0.73520   0.13488
H          H       0.32881   0.98181   0.01819   0.12755
H          H       0.92044   0.15842   0.07760   0.12938
H          H       0.49723   0.99486   0.50200   0.09924
H          H       0.74409   0.82574   0.32685   0.08466
H          H       0.92044   0.92240   0.84158   0.12928
H          H       0.83805   0.58295   0.82544   0.08336
H          H       0.50516   0.71912   0.98284   0.13530
H          H       0.52349   0.05003   0.94997   0.09286
H          H       0.24781   0.29027   0.70973   0.09419
H          H       0.35766   0.83643   0.16356   0.13910
H          H       0.31960   0.44575   0.04587   0.08709
H          H       0.21550   0.41821   0.85132   0.13700
H          H       0.01387   0.74584   0.75017   0.14017
H          H       0.82773   0.69277   0.79174   0.13001
H          H       0.24724   0.84134   0.31230   0.08486
H          H       0.85766   0.16356   0.83643   0.13910
H          H       0.75873   0.99283   0.49729   0.13912
H          H       0.35142   0.13252   0.22122   0.08116
H          H       0.24724   0.68769   0.15866   0.08477
H          H      -0.00128   0.78980   0.50816   0.13407
H          H       0.93196   0.92499   0.66067   0.08142
H          H       0.85740   0.68290   0.31710   0.14250
H          H       0.24896   0.80875   0.19125   0.09215
H          H       0.35740   0.31710   0.68290   0.14251
H          H       0.77540   0.74929   0.73885   0.09872
H          H       0.26348   0.47733   0.22931   0.13516
H          H       0.26348   0.77069   0.52267   0.13512
H          H       0.57746   0.44459   0.34103   0.13914
H          H       0.23846   0.58311   0.53219   0.09234
H          H       0.76967   0.73520   0.96000   0.13491
H          H       0.33004   0.19931   0.80069   0.09715
H          H       0.26572   0.37675   0.39014   0.13214
H          H       0.77540   0.26114   0.25071   0.09855
H          H       0.99722   0.50200   0.99486   0.09957
H          H       0.95422   0.80076   0.69973   0.08973
H          H       0.02648   0.91497   0.93087   0.08354
H          H       0.85142   0.86747   0.77877   0.08106
H          H       0.71828   0.34817   0.93074   0.13794
H          H       0.73845   0.41689   0.46781   0.09231
H          H       0.21829   0.65183   0.06926   0.13787
H          H       0.74723   0.31231   0.84133   0.08510
H          H       0.85189   0.16630   0.59676   0.12953
H          H       0.02347   0.94998   0.05002   0.09240
H          H       0.44369   0.55237   0.95097   0.12978
H          H       0.32775   0.30723   0.20824   0.13011
H          H       0.84241   0.09564   0.32564   0.08104
H          H       0.02010   0.38034   0.80039   0.13131
H          H       0.83404   0.28154   0.71845   0.09769
H          H       0.55580   0.56566   0.53379   0.08994
H          H       0.42533   0.15690   0.42954   0.08025
H          H       0.42044   0.84159   0.92241   0.12921
H          H       0.55762   0.70859   0.22615   0.07288
H          H       0.27540   0.73885   0.74928   0.09868
H          H       0.85216   0.68089   0.08682   0.12776
H          H       0.92131   0.97332   0.37694   0.08071
H          H       0.44141   0.95907   0.04093   0.09791
H          H       0.71550   0.85131   0.41820   0.13693
H          H       0.94570   0.25789   0.74210   0.12874
H          H       0.81959   0.55425   0.95413   0.08714
H          H       0.21829   0.93074   0.34817   0.13779
H          H       0.99722   0.00514   0.49800   0.09956
H          H       0.56071   0.25763   0.81110   0.07760
H          H       0.52648   0.08502   0.06912   0.08349
H          H       0.41374   0.07683   0.92317   0.13823
H          H       0.92532   0.84310   0.57045   0.08022
H          H       0.74895   0.19125   0.80875   0.09184
H          H       0.05453   0.82526   0.89643   0.13639
H          H       0.43432   0.33875   0.43080   0.13510
H          H       0.74962   0.95131   0.85716   0.12990
H          H       0.52010   0.61965   0.19961   0.13140
H          H       0.76572   0.39014   0.37675   0.13214
H          H       0.86252   0.71916   0.62757   0.08016
H          H       0.43432   0.56920   0.66125   0.13520
H          H       0.24410   0.17426   0.67314   0.08464
H          H      -0.00128   0.49183   0.21020   0.13407
H          H       0.21342   0.94534   0.98448   0.07537
H          H       0.42044   0.07759   0.15841   0.12930
H          H       0.50516   0.01715   0.28088   0.13533
H          H       0.94140   0.04093   0.95906   0.09780
H          H       0.51388   0.75018   0.74585   0.14023
H          H       0.52649   0.93088   0.91498   0.08343
H          H       0.25875   0.00717   0.50270   0.13895
H          H       0.06072   0.81111   0.25763   0.07774
H          H       0.92532   0.42954   0.15690   0.08035
H          H       0.95422   0.30026   0.19924   0.08973
H          H       0.32775   0.79175   0.69276   0.13011
H          H       0.07746   0.34104   0.44460   0.13915
H          H       0.00516   0.98284   0.71911   0.13524
H          H       0.45423   0.19924   0.30027   0.08961
H          H       0.21342   0.01551   0.05466   0.07549
H          H       0.34239   0.32565   0.09564   0.08106
H          H       0.44264   0.22220   0.77780   0.12812
H          H       0.35214   0.31911   0.91318   0.12787
H          H       0.71343   0.05467   0.01551   0.07543
H          H       0.44369   0.04902   0.44762   0.12973
H          H       0.75873   0.50271   0.00717   0.13911
H          H       0.43195   0.66068   0.92500   0.08141
H          H       0.55451   0.89643   0.82527   0.13643
H          H       0.55762   0.77385   0.29141   0.07302
H          H       0.35142   0.77878   0.86748   0.08114
H          H       0.33405   0.71846   0.28154   0.09752
H          H       0.05762   0.29141   0.77385   0.07297
H          H       0.94264   0.77779   0.22220   0.12779
H          H       0.24410   0.32686   0.82574   0.08465
H          H       0.71828   0.06926   0.65183   0.13812
H          H       0.82773   0.20825   0.30723   0.13000
H          H       0.35188   0.83368   0.40323   0.12948
C          C       0.40059   0.23800   0.76199  -0.17512
C          C       0.17443   0.78286   0.89945   0.20982
C          C       0.79399   0.20504   0.79496   0.08009
C          C       0.44456   0.49889   0.00143   0.08435
C          C       0.41082   0.79144   0.20856   0.08878
C          C       0.11381   0.36809   0.43736  -0.15925
C          C       0.47325   0.53438   0.72107   0.08925
C          C       0.09079   0.08385   0.14926  -0.16475
C          C       0.83838   0.77479   0.22521   0.08444
C          C       0.67940   0.83427   0.39098  -0.16440
C          C       0.60204   0.44978   0.41950   0.08477
C          C       0.67341   0.41490   0.35129   0.08648
C          C       0.85297   0.70900   0.29100  -0.16506
C          C       0.91472   0.47100   0.02864  -0.17529
C          C       0.30240   0.97603   0.71069  -0.17266
C          C       0.80241   0.02396   0.28931  -0.17277
C          C       0.93404   0.43127   0.29859  -0.16534
C          C       0.34710   0.55724   0.16885  -0.17103
C          C       0.43182   0.07480   0.29897   0.08074
C          C       0.09109   0.20913   0.67930   0.07857
C          C       0.11506   0.17158   0.59372   0.09175
C          C       0.34710   0.83115   0.44276  -0.17081
C          C       0.79789   0.20410   0.49067  -0.17184
C          C       0.96108   0.74591   0.74857  -0.16649
C          C       0.29788   0.79590   0.50932  -0.17165
C          C       0.68794   0.70219   0.59983   0.20776
C          C       0.07492   0.90040   0.93575   0.08258
C          C       0.92810   0.27933   0.22380   0.07921
C          C       0.40332   0.75770   0.24229  -0.17648
C          C       0.09813   0.65380   0.02789   0.20761
C          C       0.79678   0.95527   0.04473   0.20122
C          C       0.30142   0.54215   0.20182   0.08830
C          C       0.61380   0.63191   0.56264  -0.15932
C          C       0.84530   0.53030   0.97596   0.08085
C          C       0.42518   0.77512   0.71498   0.09027
C          C       0.80144   0.20182   0.54215   0.08828
C          C       0.33870   0.82648   0.54283   0.08061
C          C       0.51008   0.82237   0.98844   0.20820
C          C       0.43403   0.29859   0.43127  -0.16542
C          C       0.81153   0.50167   0.00524  -0.16686
C          C       0.92477   0.92370   0.80174  -0.17476
C          C       0.59078   0.91615   0.85074  -0.16478
C          C       0.68231   0.32826   0.90514  -0.16584
C          C       0.39471   0.26636   0.39840   0.08172
C          C       0.79789   0.50933   0.79590  -0.17182
C          C       0.15479   0.07921   0.16589   0.09009
C          C       0.57322   0.29820   0.88695  -0.16984
C          C       0.76357   0.93603   0.25427   0.20527
C          C       0.26356   0.06396   0.74573   0.20489
C          C       0.36222   0.03135   0.96864   0.08934
C          C       0.09109   0.32070   0.79087   0.07835
C          C       0.35707   0.77179   0.71627  -0.17479
C          C       0.51008   0.01156   0.17763   0.20821
C          C       0.69970   0.13139   0.05362  -0.16829
C          C       0.38623   0.01312   0.64758   0.08117
C          C       0.89471   0.39840   0.26636   0.08182
C          C       0.42943   0.56918   0.80270   0.08008
C          C       0.19873   0.69233   0.14411   0.08204
C          C       0.51568   0.31221   0.49977   0.20527
C          C       0.01569   0.49976   0.31221   0.20516
C          C       0.61794   0.32432   0.92119   0.09333
C          C       0.92943   0.43082   0.19730   0.08015
C          C       0.92517   0.22489   0.28502   0.09019
C          C       0.92943   0.80269   0.56918   0.08024
C          C       0.69970   0.94638   0.86861  -0.16818
C          C       0.07323   0.88695   0.29821  -0.16950
C          C       0.42943   0.19730   0.43082   0.08030
C          C       0.86220   0.96865   0.03135   0.08975
C          C       0.20368   0.43863   0.42146   0.08460
C          C       0.90059   0.76199   0.23800  -0.17485
C          C       0.93305   0.01504   0.98495   0.08476
C          C       0.76017   0.23173   0.57992   0.20411
C          C       0.29679   0.04474   0.95526   0.20123
C          C       0.38686   0.10730   0.23323   0.08146
C          C       0.59413   0.27763   0.83885   0.07392
C          C       0.34658   0.52905   0.96741   0.08581
C          C       0.93404   0.70140   0.56873  -0.16532
C          C       0.59413   0.16114   0.72237   0.07398
C          C       0.80446   0.71259   0.02831   0.08754
C          C       0.18794   0.29780   0.40017   0.20805
C          C       0.26356   0.25427   0.93603   0.20501
C          C       0.96980   0.77303   0.53455  -0.17173
C          C       0.76017   0.42008   0.76827   0.20402
C          C       0.31354   0.55959   0.93587   0.20195
C          C       0.68231   0.09486   0.67174  -0.16582
C          C       0.30142   0.79818   0.45785   0.08832
C          C       0.91472   0.97136   0.52900  -0.17530
C          C       0.88685   0.89270   0.76676   0.08151
C          C       0.43182   0.70103   0.92519   0.08059
C          C       0.34830   0.04659   0.68025  -0.17350
C          C       0.34658   0.03259   0.47095   0.08593
C          C       0.71886   0.40711   0.38797  -0.16600
C          C       0.81153   0.99476   0.49833  -0.16684
C          C       0.94455   0.00142   0.49889   0.08437
C          C       0.57492   0.93575   0.90041   0.08277
C          C       0.85706   0.22821   0.28373  -0.17480
C          C       0.31154   0.00524   0.50166  -0.16704
C          C       0.44456   0.99857   0.50110   0.08434
C          C       0.46980   0.22697   0.46545  -0.17197
C          C       0.40888   0.27163   0.72837   0.08700
C          C       0.11381   0.56264   0.63191  -0.15946
C          C       0.47591   0.80528   0.19472   0.20080
C          C       0.01007   0.98844   0.82237   0.20821
C          C       0.09414   0.72237   0.16114   0.07406
C          C       0.96917   0.21457   0.04309   0.08690
C          C       0.70368   0.56137   0.57853   0.08477
C          C       0.09079   0.85074   0.91615  -0.16479
C          C       0.34531   0.97596   0.53029   0.08148
C          C       0.97326   0.72108   0.53438   0.08929
C          C       0.46918   0.78543   0.95690   0.08655
C          C       0.29399   0.79496   0.20504   0.08024
C          C       0.09534   0.45839   0.84504   0.20800
C          C       0.09534   0.15495   0.54160   0.20809
C          C       0.17443   0.10055   0.21714   0.21005
C          C       0.26015   0.57992   0.23172   0.20427
C          C       0.96917   0.95691   0.78543   0.08683
C          C       0.80446   0.97168   0.28741   0.08760
C          C       0.93181   0.92519   0.70102   0.08064
C          C       0.91820   0.94929   0.05070  -0.16665
C          C       0.18231   0.67174   0.09486  -0.16599
C          C       0.67955   0.08264   0.03460   0.07742
C          C       0.91082   0.20856   0.79143   0.08875
C          C       0.92477   0.19826   0.07629  -0.17463
C          C       0.18794   0.59983   0.70220   0.20807
C          C       0.31354   0.06413   0.44041   0.20192
C          C       0.31154   0.49833   0.99476  -0.16700
C          C       0.84225   0.67663   0.94503   0.08005
C          C       0.61794   0.07880   0.67568   0.09316
C          C       0.65478   0.92078   0.83410   0.08995
C          C       0.11795   0.67567   0.07880   0.09333
C          C       0.67940   0.60902   0.16573  -0.16419
C          C       0.97885   0.96410   0.03590   0.08099
C          C       0.46109   0.74857   0.74591  -0.16671
C          C       0.59811   0.02790   0.65380   0.20763
C          C       0.59108   0.67930   0.20913   0.07871
C          C       0.97326   0.46561   0.27892   0.08911
C          C       0.82797   0.25730   0.25238   0.08582
C          C       0.84830   0.68025   0.04659  -0.17345
C          C       0.83869   0.17351   0.45716   0.08055
C          C       0.47887   0.03591   0.96409   0.08150
C          C       0.88624   0.98688   0.35242   0.08111
C          C       0.18231   0.90514   0.32826  -0.16609
C          C       0.57026   0.63007   0.19391  -0.17012
C          C       0.38623   0.35242   0.98688   0.08114
C          C       0.19970   0.05361   0.13138  -0.16847
C          C       0.38576   0.52141   0.13971   0.08307
C          C       0.37077   0.99770   0.00230  -0.17400
C          C       0.67441   0.89944   0.78285   0.20975
C          C       0.85706   0.71627   0.77179  -0.17470
C          C       0.34149   0.74443   0.25557   0.08692
C          C       0.35414   0.81029   0.18971  -0.16826
C          C       0.42518   0.28502   0.22488   0.09017
C          C       0.41474   0.52900   0.97136  -0.17520
C          C       0.51568   0.50023   0.68779   0.20513
C          C       0.43305   0.98496   0.01504   0.08366
C          C       0.47187   0.04242   0.26642  -0.17342
C          C       0.07026   0.19390   0.63007  -0.17019
C          C       0.93181   0.29898   0.07480   0.08051
C          C       0.90331   0.24229   0.75770  -0.17617
C          C       0.80144   0.45785   0.79818   0.08834
C          C       0.67341   0.64871   0.58510   0.08637
C          C       0.84711   0.16885   0.55724  -0.17112
C          C       0.95791   0.19490   0.31707   0.20181
C          C       0.80241   0.71069   0.97603  -0.17277
C          C       0.07323   0.70179   0.11305  -0.16947
C          C       0.97186   0.26642   0.04242  -0.17329
C          C       0.59811   0.34620   0.97210   0.20753
C          C       0.69565   0.65942   0.18069   0.08047
C          C       0.57026   0.80609   0.36993  -0.17009
C          C       0.42478   0.07629   0.19825  -0.17435
C          C       0.17940   0.39098   0.83427  -0.16432
C          C       0.95791   0.68293   0.80510   0.20185
C          C       0.11506   0.40628   0.82842   0.09176
C          C       0.88576   0.47859   0.86030   0.08300
C          C       0.01007   0.17763   0.01155   0.20807
C          C       0.42811   0.22380   0.27933   0.07934
C          C       0.89471   0.73363   0.60160   0.08197
C          C       0.47325   0.27892   0.46562   0.08915
C          C       0.43403   0.56873   0.70140  -0.16543
C          C       0.19970   0.86862   0.94638  -0.16853
C          C       0.09414   0.83886   0.27763   0.07422
C          C       0.59078   0.14926   0.08385  -0.16470
C          C       0.61506   0.59372   0.17158   0.09167
C          C       0.07492   0.06425   0.09959   0.08261
C          C       0.20368   0.57853   0.56137   0.08456
C          C       0.92810   0.77620   0.72067   0.07928
C          C       0.61506   0.82841   0.40627   0.09178
C          C       0.34830   0.31974   0.95341  -0.17334
C          C       0.30723   0.58155   0.41845   0.20097
C          C       0.35707   0.28373   0.22821  -0.17486
C          C       0.30446   0.28740   0.97169   0.08762
C          C       0.67441   0.21715   0.10055   0.20986
C          C       0.87076   0.00230   0.99769  -0.17489
C          C       0.46918   0.04309   0.21456   0.08671
C          C       0.32798   0.25238   0.25730   0.08607
C          C       0.81353   0.93587   0.55959   0.20219
C          C       0.88576   0.13970   0.52140   0.08313
C          C       0.88685   0.23324   0.10730   0.08150
C          C       0.84657   0.96741   0.52904   0.08556
C          C       0.88624   0.64758   0.01312   0.08105
C          C       0.34224   0.32337   0.05497   0.08021
C          C       0.30446   0.02831   0.71260   0.08778
C          C       0.82797   0.74762   0.74270   0.08550
C          C       0.96980   0.46545   0.22697  -0.17173
C          C       0.83869   0.54283   0.82648   0.08061
C          C       0.84711   0.44276   0.83115  -0.17092
C          C       0.59534   0.54160   0.15496   0.20811
C          C       0.15479   0.83411   0.92079   0.09033
C          C       0.84830   0.95341   0.31975  -0.17348
C          C       0.07026   0.36993   0.80609  -0.17015
C          C       0.84530   0.02404   0.46970   0.08084
C          C       0.67955   0.96540   0.91736   0.07724
C          C       0.65478   0.16590   0.07921   0.08988
C          C       0.46109   0.25408   0.25142  -0.16668
C          C       0.84148   0.25557   0.74442   0.08633
C          C       0.17341   0.35129   0.41490   0.08640
C          C       0.33870   0.45717   0.17352   0.08062
C          C       0.59108   0.79087   0.32070   0.07853
C          C       0.29241   0.27615   0.72385   0.08142
C          C       0.41822   0.05071   0.94929  -0.16718
C          C       0.17955   0.91737   0.96540   0.07701
C          C       0.92517   0.71497   0.77511   0.09010
C          C       0.97186   0.95758   0.73358  -0.17332
C          C       0.69873   0.14411   0.69233   0.08191
C          C       0.61380   0.43735   0.36809  -0.15932
C          C       0.32798   0.74270   0.74762   0.08579
C          C       0.11795   0.92120   0.32432   0.09320
C          C       0.96108   0.25143   0.25409  -0.16651
C          C       0.81353   0.44041   0.06412   0.20210
C          C       0.71886   0.61203   0.59289  -0.16598
C          C       0.69565   0.81931   0.34057   0.08033
C          C       0.94455   0.50111   0.99858   0.08424
C          C       0.85414   0.18971   0.81029  -0.16832
C          C       0.47187   0.73358   0.95758  -0.17336
C          C       0.60204   0.58050   0.55022   0.08480
C          C       0.46980   0.53455   0.77303  -0.17175
C          C       0.34531   0.46971   0.02404   0.08145
C          C       0.17341   0.58509   0.64871   0.08646
C          C       0.10205   0.41951   0.44978   0.08475
C          C       0.45791   0.31706   0.19489   0.20161
C          C       0.45791   0.80510   0.68293   0.20171
C          C       0.17955   0.03460   0.08263   0.07691
C          C       0.34224   0.94503   0.67663   0.08010
C          C       0.29788   0.49067   0.20410  -0.17170
C          C       0.84225   0.05497   0.32337   0.08012
C          C       0.21886   0.38797   0.40711  -0.16599
C          C       0.41474   0.02864   0.47099  -0.17511
C          C       0.39471   0.60160   0.73364   0.08190
C          C       0.10205   0.55022   0.58049   0.08489
C          C       0.68794   0.40017   0.29780   0.20778
C          C       0.84657   0.47095   0.03259   0.08560
C          C       0.76357   0.74573   0.06397   0.20524
C          C       0.57322   0.11305   0.70179  -0.16980
C          C       0.33839   0.22521   0.77479   0.08466
C          C       0.42478   0.80174   0.92370  -0.17441
C          C       0.17940   0.16572   0.60902  -0.16406
C          C       0.70368   0.42147   0.43863   0.08480
C          C       0.59534   0.84504   0.45839   0.20819
C          C       0.19874   0.85589   0.30766   0.08193
C          C       0.01569   0.68779   0.50023   0.20498
C          C       0.90888   0.72837   0.27163   0.08691
C          C       0.69873   0.30767   0.85588   0.08188
C          C       0.21886   0.59289   0.61203  -0.16593
C          C       0.19565   0.34058   0.81931   0.08046
C          C       0.79241   0.72385   0.27615   0.08164
C          C       0.35297   0.29100   0.70900  -0.16498
C          C       0.38576   0.86029   0.47858   0.08303
C          C       0.42811   0.72067   0.77620   0.07916
C          C       0.97402   0.71483   0.28517   0.20317
C          C       0.80722   0.41846   0.58154   0.20108
C          C       0.19565   0.18068   0.65942   0.08047
C          C       0.09813   0.97211   0.34620   0.20790
C          C       0.47403   0.28517   0.71483   0.20316
C          C       0.30240   0.28931   0.02397  -0.17284
C          C       0.38686   0.76677   0.89270   0.08150
C          C       0.57492   0.09959   0.06424   0.08263
C          C       0.26015   0.76828   0.42008   0.20414
C          C       0.97591   0.19473   0.80527   0.20092
N          N       0.22775   0.21499   0.94547  -0.25006
N          N       0.78719   0.23739   0.76260  -0.23311
N          N       0.19204   0.71560   0.38292  -0.04915
N          N       0.75985   0.37153   0.77481  -0.26838
N          N       0.54229   0.45764   0.69874  -0.23161
N          N       0.55510   0.98337   0.10767  -0.07522
N          N       0.53971   0.47705   0.12511  -0.07715
N          N       0.24263   0.62463   0.72028  -0.26820
N          N       0.54771   0.97282   0.18593  -0.24802
N          N       0.25801   0.26039   0.88754  -0.27192
N          N       0.05510   0.01662   0.89232  -0.07596
N          N       0.05719   0.16318   0.83682  -0.03396
N          N       0.54123   0.38018   0.03418  -0.06882
N          N       0.23498   0.77012   0.88223  -0.26709
N          N       0.75985   0.22519   0.62846  -0.26841
N          N       0.03276   0.64135   0.50774  -0.24971
N          N       0.05510   0.10767   0.98338  -0.07559
N          N       0.07522   0.14153   0.95575  -0.04802
N          N       0.55510   0.89233   0.01663  -0.07546
N          N       0.65250   0.69441   0.20235  -0.23587
N          N       0.51399   0.87068   0.98140  -0.27376
N          N       0.21150   0.56721   0.43278  -0.04398
N          N       0.73196   0.27955   0.13323  -0.07335
N          N       0.57709   0.28661   0.71339  -0.06652
N          N       0.84509   0.90955   0.59032  -0.26624
N          N       0.03844   0.98440   0.36535  -0.26989
N          N       0.52736   0.26623   0.73377  -0.25402
N          N       0.54229   0.30126   0.54236  -0.23136
N          N       0.13358   0.15896   0.50197  -0.25373
N          N       0.74841   0.92879   0.56048  -0.24343
N          N       0.86265   0.28253   0.22261  -0.23184
N          N       0.63358   0.50197   0.15897  -0.25387
N          N       0.02321   0.67812   0.80746  -0.24255
N          N       0.25983   0.77482   0.37153  -0.26842
N          N       0.54123   0.96581   0.61982  -0.06857
N          N       0.11831   0.03990   0.06629  -0.24093
N          N       0.34510   0.59033   0.90954  -0.26600
N          N       0.17198   0.12522   0.29592  -0.04632
N          N       0.57058   0.46878   0.62372  -0.06005
N          N       0.21682   0.65073   0.25850  -0.07247
N          N       0.57603   0.43840   0.65797  -0.04602
N          N       0.71148   0.43279   0.56721  -0.04412
N          N       0.92675   0.16580   0.34537  -0.26912
N          N       0.89253   0.39724   0.21618  -0.24500
N          N       0.53237   0.83881   0.64616  -0.04039
N          N       0.48977   0.31680   0.68320  -0.23770
N          N       0.57523   0.85847   0.04425  -0.04874
N          N       0.64598   0.44224   0.45443  -0.22123
N          N       0.52322   0.80747   0.67812  -0.24277
N          N       0.57603   0.34202   0.56160  -0.04619
N          N       0.69971   0.80334   0.09847  -0.04720
N          N       0.04769   0.18592   0.97281  -0.24818
N          N       0.71776   0.77589   0.13303  -0.07449
N          N       0.59738   0.85950   0.53776  -0.04389
N          N       0.98977   0.68320   0.31680  -0.23754
N          N       0.42675   0.34536   0.16579  -0.26880
N          N       0.73994   0.40757   0.10276  -0.04008
N          N       0.53843   0.01561   0.63464  -0.27035
N          N       0.14599   0.55776   0.54556  -0.22092
N          N       0.02321   0.19254   0.32188  -0.24258
N          N       0.17198   0.70408   0.87478  -0.04619
N          N       0.57890   0.80634   0.19366  -0.06577
N          N       0.01399   0.12932   0.01861  -0.27382
N          N       0.71403   0.39997   0.60003  -0.02940
N          N       0.48669   0.00361   0.99638  -0.22929
N          N       0.14885   0.26032   0.40963  -0.24606
N          N       0.47464   0.36787   0.14510  -0.05732
N          N       0.38331   0.96270   0.64486  -0.24621
N          N       0.60010   0.94902   0.63027  -0.04548
N          N       0.21540   0.07617   0.92383  -0.03612
N          N       0.34510   0.09045   0.40967  -0.26608
N          N       0.64884   0.73967   0.59038  -0.24543
N          N       0.23673   0.63030   0.77007  -0.07295
N          N       0.07603   0.65797   0.43840  -0.04629
N          N       0.77601   0.39022   0.60978  -0.23699
N          N       0.02892   0.21386   0.78614  -0.25292
N          N       0.55719   0.83682   0.16317  -0.03345
N          N       0.53971   0.87489   0.52295  -0.07723
N          N       0.69379   0.95436   0.04564  -0.06040
N          N       0.41080   0.46942   0.02760  -0.23696
N          N       0.21847   0.57212   0.26822  -0.24846
N          N       0.04229   0.54236   0.30126  -0.23123
N          N       0.75801   0.88754   0.26040  -0.27244
N          N       0.69206   0.28440   0.61708  -0.04965
N          N       0.77261   0.44547   0.55452  -0.26190
N          N       0.71849   0.26823   0.57212  -0.24819
N          N       0.04124   0.61982   0.96581  -0.06897
N          N       0.24390   0.02547   0.97452  -0.25687
N          N       0.07060   0.53121   0.37628  -0.06051
N          N       0.73496   0.88222   0.77012  -0.26694
N          N       0.68048   0.39038   0.21843  -0.04739
N          N       0.13709   0.01268   0.34868  -0.25364
N          N       0.88332   0.03729   0.35514  -0.24620
N          N       0.75801   0.73959   0.11246  -0.27218
N          N       0.13458   0.10505   0.25743  -0.25320
N          N       0.03237   0.64616   0.83880  -0.04041
N          N       0.78015   0.92370   0.07629  -0.24397
N          N       0.79776   0.38974   0.11421  -0.05472
N          N       0.21682   0.74149   0.34927  -0.07235
N          N       0.38331   0.35514   0.03729  -0.24643
N          N       0.07708   0.71339   0.28661  -0.06691
N          N       0.22775   0.05453   0.78500  -0.24997
N          N       0.23198   0.72045   0.86677  -0.07327
N          N       0.67196   0.87478   0.70408  -0.04620
N          N       0.03276   0.49226   0.35864  -0.24960
N          N       0.71776   0.86697   0.22411  -0.07419
N          N       0.69971   0.90152   0.19666  -0.04707
N          N       0.71684   0.25850   0.65073  -0.07252
N          N       0.71849   0.42788   0.73176  -0.24853
N          N       0.73674   0.77007   0.63029  -0.07265
N          N       0.84509   0.40968   0.09045  -0.26617
N          N       0.88332   0.64486   0.96271  -0.24593
N          N       0.23498   0.11777   0.22988  -0.26693
N          N       0.28015   0.07630   0.92370  -0.24344
N          N       0.36266   0.71747   0.77739  -0.23184
N          N       0.97465   0.63213   0.85489  -0.05743
N          N       0.53696   0.52726   0.13424  -0.27284
N          N       0.24842   0.07121   0.43952  -0.24345
N          N       0.04124   0.03419   0.38017  -0.06934
N          N       0.27263   0.55453   0.44547  -0.26195
N          N       0.39254   0.60276   0.78382  -0.24513
N          N       0.73196   0.86677   0.72045  -0.07316
N          N       0.19204   0.61708   0.28440  -0.04930
N          N       0.18049   0.21843   0.39039  -0.04716
N          N       0.51399   0.01860   0.12932  -0.27393
N          N       0.07522   0.04425   0.85847  -0.04825
N          N       0.89013   0.28322   0.10739  -0.24400
N          N       0.61831   0.96010   0.93371  -0.24146
N          N       0.42675   0.83421   0.65463  -0.26878
N          N       0.47464   0.85489   0.63213  -0.05738
N          N       0.23198   0.13322   0.27955  -0.07352
N          N       0.71684   0.34927   0.74149  -0.07247
N          N       0.09738   0.53776   0.85951  -0.04351
N          N       0.73674   0.36970   0.22993  -0.07252
N          N       0.25983   0.62846   0.22518  -0.26844
N          N       0.74841   0.43952   0.07121  -0.24337
N          N       0.39254   0.21618   0.39724  -0.24493
N          N       0.53237   0.35383   0.16118  -0.04038
N          N       0.63708   0.98732   0.65132  -0.25332
N          N       0.52004   0.48531   0.51469  -0.23879
N          N       0.49237   0.83688   0.16312  -0.24439
N          N       0.14885   0.59036   0.73967  -0.24583
N          N       0.92675   0.65463   0.83420  -0.26904
N          N       0.63456   0.89494   0.74256  -0.25325
N          N       0.29776   0.11422   0.38974  -0.05447
N          N       0.63358   0.84103   0.49803  -0.25356
N          N       0.64884   0.40962   0.26033  -0.24586
N          N       0.15250   0.30558   0.79765  -0.23544
N          N       0.52322   0.32188   0.19253  -0.24277
N          N       0.73994   0.89724   0.59242  -0.03997
N          N       0.21847   0.73177   0.42788  -0.24860
N          N       0.18049   0.60961   0.78157  -0.04747
N          N       0.86265   0.77739   0.71747  -0.23179
N          N       0.07603   0.56160   0.34202  -0.04644
N          N       0.10011   0.05099   0.36972  -0.04522
N          N       0.55442   0.31693   0.68307  -0.03135
N          N       0.74264   0.72028   0.62461  -0.26812
N          N       0.11831   0.93371   0.96010  -0.24111
N          N       0.36266   0.22261   0.28253  -0.23204
N          N       0.24263   0.27972   0.37537  -0.26821
N          N       0.15560   0.82288   0.28257  -0.23752
N          N       0.63708   0.34868   0.01267  -0.25319
N          N       0.13709   0.65132   0.98731  -0.25378
N          N       0.03695   0.47274   0.86576  -0.27279
N          N       0.74388   0.97453   0.02547  -0.25719
N          N       0.53274   0.35865   0.49227  -0.24989
N          N       0.97465   0.14511   0.36787  -0.05725
N          N       0.38181   0.47179   0.14130  -0.24009
N          N       0.78481   0.75614   0.24385  -0.22977
N          N       0.23673   0.22993   0.36970  -0.07290
N          N       0.29776   0.61026   0.88578  -0.05460
N          N       0.21776   0.13303   0.77589  -0.07477
N          N       0.69206   0.38292   0.71559  -0.04926
N          N       0.13458   0.74257   0.89495  -0.25330
N          N       0.65250   0.79765   0.30558  -0.23547
N          N       0.73496   0.22988   0.11778  -0.26679
N          N       0.72778   0.94546   0.21499  -0.24987
N          N       0.79776   0.88579   0.61026  -0.05477
N          N       0.24842   0.56048   0.92879  -0.24350
N          N       0.21776   0.22410   0.86697  -0.07458
N          N       0.03970   0.52295   0.87489  -0.07749
N          N       0.88181   0.14129   0.47179  -0.23986
N          N       0.04229   0.69874   0.45764  -0.23135
N          N       0.91079   0.53058   0.97240  -0.23661
N          N       0.64598   0.54557   0.55776  -0.22104
N          N       0.63456   0.25744   0.10506  -0.25315
N          N       0.19969   0.09847   0.80333  -0.04690
N          N       0.28719   0.76260   0.23739  -0.23336
N          N       0.38181   0.85869   0.52820  -0.24029
N          N       0.15560   0.71742   0.17712  -0.23768
N          N       0.10011   0.63028   0.94901  -0.04508
N          N       0.03695   0.13424   0.52725  -0.27303
N          N       0.59738   0.46223   0.14050  -0.04353
N          N       0.05442   0.68307   0.31693  -0.03134
N          N       0.19381   0.04564   0.95436  -0.06148
N          N       0.23994   0.59242   0.89724  -0.04024
N          N       0.53696   0.86576   0.47274  -0.27286
N          N       0.57523   0.95575   0.14153  -0.04854
N          N       0.41080   0.97240   0.53058  -0.23699
N          N       0.14599   0.45444   0.44224  -0.22117
N          N       0.52892   0.78614   0.21386  -0.25295
N          N       0.68048   0.78157   0.60962  -0.04778
N          N       0.53843   0.36536   0.98439  -0.27009
N          N       0.03237   0.16120   0.35383  -0.04044
N          N       0.61831   0.06629   0.03990  -0.24132
N          N       0.02736   0.73377   0.26623  -0.25379
N          N       0.39014   0.71679   0.89261  -0.24385
N          N       0.27602   0.60979   0.39021  -0.23738
N          N       0.13358   0.49803   0.84104  -0.25357
N          N       0.65560   0.28257   0.82288  -0.23720
N          N       0.07889   0.19366   0.80633  -0.06452
N          N       0.67196   0.29592   0.12522  -0.04645
N          N       0.53274   0.50773   0.64135  -0.24997
N          N       0.98668   0.99639   0.00361  -0.22918
N          N       0.19969   0.19666   0.90153  -0.04682
N          N       0.07060   0.62372   0.46878  -0.06022
N          N       0.09738   0.14049   0.46223  -0.04357
N          N       0.01399   0.98139   0.87068  -0.27363
N          N       0.91079   0.02760   0.46942  -0.23661
N          N       0.74264   0.37538   0.27972  -0.26820
N          N       0.21404   0.60003   0.39996  -0.02917
N          N       0.72778   0.78501   0.05453  -0.24969
N          N       0.89013   0.89261   0.71678  -0.24382
N          N       0.57058   0.37628   0.53122  -0.06035
N          N       0.89253   0.78382   0.60276  -0.24536
N          N       0.25801   0.11246   0.73960  -0.27178
N          N       0.04770   0.02719   0.81408  -0.24797
N          N       0.39014   0.10739   0.28321  -0.24417
N          N       0.23994   0.10276   0.40758  -0.04038
N          N       0.03844   0.63465   0.01560  -0.27002
N          N       0.60010   0.36973   0.05098  -0.04572
N          N       0.88181   0.52821   0.85870  -0.24005
N          N       0.28481   0.24385   0.75614  -0.22981
N          N       0.99237   0.16312   0.83687  -0.24479
N          N       0.15250   0.20235   0.69441  -0.23571
N          N       0.65560   0.17712   0.71742  -0.23742
N          N       0.71540   0.92383   0.07616  -0.03608
N          N       0.02005   0.51470   0.48530  -0.23874
N          N       0.54771   0.81407   0.02718  -0.24777
N          N       0.03971   0.12511   0.47705  -0.07706

