data_crystal

_audit_creation_method 'AiiDA-DDEC plugin'

_cell_length_a        15.30793
_cell_length_b        15.30629
_cell_length_c        42.81205

_cell_angle_alpha     89.99439
_cell_angle_beta     90.00181
_cell_angle_gamma     120.21428

_symmetry_space_group_name_Hall 'P 1'
_symmetry_space_group_name_H-M  'P 1'

loop_
_symmetry_equiv_pos_as_xyz
 'x,y,z'

loop_
_atom_site_label
_atom_site_type_symbol
_atom_site_fract_x
_atom_site_fract_y
_atom_site_fract_z
_atom_site_charge
Ag         Ag      0.56913   0.14088   0.91660   0.23977
Ag         Ag      0.75075   0.50255   0.91660   0.25154
Ag         Ag      0.57052   0.42957   0.24985   0.23784
Ag         Ag      0.75091   0.24912   0.24999   0.25197
Ag         Ag      0.85908   0.43074   0.58340   0.23983
Ag         Ag      0.49743   0.24931   0.58343   0.25147
Ag         Ag      0.44652   0.22220   0.08372   0.44038
Ag         Ag      0.77735   0.55316   0.41620   0.44161
Ag         Ag      0.77782   0.22200   0.75000   0.44066
Ag         Ag      0.43073   0.85914   0.41662   0.23926
Ag         Ag      0.24899   0.49737   0.41667   0.25136
Ag         Ag      0.42942   0.57055   0.75000   0.23786
Ag         Ag      0.24906   0.75078   0.75000   0.25248
Ag         Ag      0.14091   0.56913   0.08340   0.24006
Ag         Ag      0.50253   0.75066   0.08340   0.25165
Ag         Ag      0.55306   0.77766   0.58366   0.44042
Ag         Ag      0.22235   0.44645   0.91619   0.44076
Ag         Ag      0.22216   0.77802   0.25002   0.44098
H          H       0.37665   0.97039   0.92314   0.10109
H          H       0.19777   0.83775   0.93279   0.09697
H          H       0.11046   0.83927   0.98176   0.10806
H          H       0.20586   0.97640   0.02154   0.13042
H          H       0.53010   0.24518   0.03032   0.11735
H          H       0.63547   0.37932   0.01252   0.09186
H          H       0.73791   0.43526   0.98625   0.09434
H          H       0.71094   0.28561   0.03906   0.12112
H          H       0.80283   0.41578   0.03781   0.12048
H          H       0.80941   0.33175   0.01081   0.12133
H          H       0.82617   0.23536   0.88145   0.11371
H          H       0.87582   0.16686   0.90050   0.12760
H          H       0.95701   0.29477   0.88986   0.11033
H          H       0.79101   0.21086   0.94089   0.09846
H          H       0.92184   0.28631   0.94709   0.09298
H          H       0.04635   0.42507   0.92534   0.11311
H          H       0.23454   0.74031   0.88077   0.12273
H          H       0.19831   0.87331   0.86068   0.10960
H          H       0.02324   0.84491   0.86531   0.10690
H          H       0.88534   0.68459   0.88794   0.10458
H          H       0.59237   0.62233   0.25630   0.10169
H          H       0.63775   0.80054   0.26611   0.09648
H          H       0.72823   0.88870   0.31479   0.10728
H          H       0.77194   0.79451   0.35434   0.12915
H          H       0.71741   0.47163   0.36311   0.11597
H          H       0.74356   0.36569   0.34603   0.09178
H          H       0.69809   0.26373   0.31964   0.09352
H          H       0.57344   0.28858   0.37218   0.12094
H          H       0.61236   0.19766   0.37098   0.12043
H          H       0.52176   0.19027   0.34383   0.12116
H          H       0.40839   0.17169   0.21503   0.11466
H          H       0.28878   0.11941   0.23357   0.12867
H          H       0.33825   0.04070   0.22336   0.10984
H          H       0.41696   0.20652   0.27446   0.09847
H          H       0.36195   0.07582   0.28066   0.09347
H          H       0.37634   0.95250   0.25954   0.11181
H          H       0.50258   0.76392   0.21624   0.12322
H          H       0.67135   0.79995   0.19537   0.10990
H          H       0.81813   0.97610   0.19832   0.10672
H          H       0.79663   0.11480   0.22025   0.10483
H          H       0.02928   0.40889   0.58966   0.10113
H          H       0.16212   0.36367   0.59921   0.09687
H          H       0.15894   0.27170   0.64760   0.10791
H          H       0.02032   0.22629   0.68709   0.12974
H          H       0.75149   0.27962   0.69622   0.11675
H          H       0.62048   0.25679   0.67954   0.09221
H          H       0.56432   0.30202   0.65305   0.09378
H          H       0.71381   0.42646   0.70575   0.12058
H          H       0.58394   0.38865   0.70402   0.11985
H          H       0.66931   0.47894   0.67710   0.12086
H          H       0.76550   0.59234   0.54816   0.11493
H          H       0.83313   0.71170   0.56683   0.12735
H          H       0.70481   0.66233   0.55636   0.11024
H          H       0.79059   0.58305   0.60754   0.09811
H          H       0.71538   0.63821   0.61375   0.09319
H          H       0.57698   0.62378   0.59225   0.11319
H          H       0.26064   0.49511   0.54876   0.12260
H          H       0.12740   0.32553   0.52831   0.11027
H          H       0.15662   0.17932   0.53175   0.10690
H          H       0.31757   0.20245   0.55371   0.10524
H          H       0.59103   0.97060   0.91034   0.10168
H          H       0.63631   0.83781   0.90079   0.09732
H          H       0.72815   0.84091   0.85240   0.10819
H          H       0.77360   0.97960   0.81293   0.12934
H          H       0.72050   0.24856   0.80379   0.11633
H          H       0.74310   0.37955   0.82047   0.09199
H          H       0.69783   0.43565   0.84696   0.09365
H          H       0.57346   0.28622   0.79424   0.12065
H          H       0.61134   0.41609   0.79599   0.11930
H          H       0.52098   0.33072   0.82289   0.12120
H          H       0.40777   0.23449   0.95186   0.11454
H          H       0.28839   0.16684   0.93319   0.12823
H          H       0.33780   0.29518   0.94368   0.11066
H          H       0.41696   0.20942   0.89247   0.09815
H          H       0.36184   0.28468   0.88630   0.09342
H          H       0.37635   0.42298   0.90776   0.11345
H          H       0.50482   0.73929   0.95124   0.12276
H          H       0.67433   0.87261   0.97170   0.11010
H          H       0.82058   0.84351   0.96827   0.10674
H          H       0.79755   0.68257   0.94632   0.10502
H          H       0.02948   0.62336   0.57690   0.10160
H          H       0.16208   0.80226   0.56726   0.09663
H          H       0.16043   0.88958   0.51831   0.10733
H          H       0.02360   0.79411   0.47846   0.13029
H          H       0.75497   0.46963   0.46966   0.11708
H          H       0.62068   0.36470   0.48750   0.09206
H          H       0.56471   0.26217   0.51376   0.09466
H          H       0.71406   0.28905   0.46085   0.12136
H          H       0.58382   0.19711   0.46221   0.12079
H          H       0.66801   0.19054   0.48913   0.12148
H          H       0.76461   0.17378   0.61857   0.11392
H          H       0.83289   0.12394   0.59949   0.12784
H          H       0.70506   0.04292   0.61014   0.11105
H          H       0.78902   0.20907   0.55913   0.09803
H          H       0.71355   0.07822   0.55291   0.09335
H          H       0.57491   0.95369   0.57468   0.11331
H          H       0.25953   0.76534   0.61914   0.12318
H          H       0.12651   0.80151   0.63923   0.10999
H          H       0.15495   0.97662   0.63463   0.10739
H          H       0.31535   0.11464   0.61209   0.10422
H          H       0.37768   0.40772   0.24333   0.10105
H          H       0.19959   0.36255   0.23343   0.09609
H          H       0.11119   0.27114   0.18487   0.10795
H          H       0.20493   0.22597   0.14560   0.12955
H          H       0.52762   0.27993   0.13698   0.11581
H          H       0.63496   0.25608   0.15386   0.09203
H          H       0.73684   0.30206   0.18027   0.09388
H          H       0.71134   0.42633   0.12775   0.12070
H          H       0.80252   0.38777   0.12888   0.12030
H          H       0.80972   0.47817   0.15607   0.12093
H          H       0.82817   0.59162   0.28496   0.11500
H          H       0.88037   0.71126   0.26642   0.12864
H          H       0.95916   0.66186   0.27664   0.10980
H          H       0.79345   0.58317   0.22551   0.09820
H          H       0.92415   0.63823   0.21934   0.09297
H          H       0.04739   0.62374   0.24043   0.11221
H          H       0.23604   0.49742   0.28371   0.12293
H          H       0.19996   0.32861   0.30457   0.10998
H          H       0.02382   0.18182   0.30162   0.10678
H          H       0.88516   0.20338   0.27969   0.10595
H          H       0.62333   0.02961   0.42311   0.10147
H          H       0.80223   0.16217   0.43276   0.09666
H          H       0.88952   0.16058   0.48173   0.10731
H          H       0.79404   0.02359   0.52155   0.13056
H          H       0.46976   0.75492   0.53034   0.11722
H          H       0.36458   0.62063   0.51251   0.09199
H          H       0.26210   0.56470   0.48627   0.09446
H          H       0.28911   0.71424   0.53910   0.12114
H          H       0.19717   0.58408   0.53782   0.12089
H          H       0.19063   0.66817   0.51086   0.12134
H          H       0.17393   0.76481   0.38153   0.11363
H          H       0.12402   0.83312   0.40058   0.12721
H          H       0.04307   0.70525   0.38989   0.11060
H          H       0.20894   0.78906   0.44096   0.09796
H          H       0.07811   0.71370   0.44715   0.09332
H          H       0.95348   0.57496   0.42533   0.11246
H          H       0.76531   0.25972   0.38079   0.12314
H          H       0.80155   0.12673   0.36069   0.10996
H          H       0.97662   0.15511   0.36533   0.10676
H          H       0.11451   0.31541   0.38797   0.10376
H          H       0.40782   0.37766   0.75658   0.10135
H          H       0.36262   0.19953   0.76644   0.09613
H          H       0.27126   0.11102   0.81499   0.10840
H          H       0.22635   0.20486   0.85431   0.12975
H          H       0.28020   0.52737   0.86303   0.11626
H          H       0.25615   0.63491   0.84611   0.09193
H          H       0.30221   0.73680   0.81966   0.09346
H          H       0.42641   0.71145   0.87224   0.12115
H          H       0.38770   0.80256   0.87105   0.12033
H          H       0.47825   0.80981   0.84389   0.12054
H          H       0.59168   0.82832   0.71503   0.11491
H          H       0.71128   0.88059   0.73356   0.12864
H          H       0.66178   0.95932   0.72337   0.10951
H          H       0.58318   0.79344   0.77446   0.09841
H          H       0.63816   0.92416   0.78067   0.09299
H          H       0.62369   0.04743   0.75957   0.11191
H          H       0.49736   0.23601   0.71630   0.12334
H          H       0.32862   0.19998   0.69541   0.10983
H          H       0.18189   0.02381   0.69833   0.10677
H          H       0.20341   0.88513   0.72026   0.10498
H          H       0.97068   0.59102   0.08968   0.10132
H          H       0.83788   0.63627   0.09923   0.09677
H          H       0.84108   0.72824   0.14761   0.10794
H          H       0.97973   0.77367   0.18709   0.12971
H          H       0.24862   0.72045   0.19621   0.11661
H          H       0.37953   0.74312   0.17953   0.09205
H          H       0.43569   0.69788   0.15305   0.09363
H          H       0.28615   0.57345   0.20574   0.12078
H          H       0.41601   0.61126   0.20402   0.11946
H          H       0.33068   0.52097   0.17711   0.12108
H          H       0.23453   0.40772   0.04814   0.11455
H          H       0.16686   0.28833   0.06678   0.12772
H          H       0.29517   0.33769   0.05632   0.11028
H          H       0.20938   0.41683   0.10753   0.09811
H          H       0.28463   0.36171   0.11370   0.09331
H          H       0.42288   0.37617   0.09224   0.11363
H          H       0.73929   0.50474   0.04877   0.12270
H          H       0.87256   0.67432   0.02831   0.11008
H          H       0.84339   0.82056   0.03172   0.10686
H          H       0.68244   0.79747   0.05368   0.10411
H          H       0.40895   0.02934   0.41034   0.10144
H          H       0.36370   0.16218   0.40080   0.09721
H          H       0.27196   0.15921   0.35239   0.10819
H          H       0.22644   0.02052   0.31292   0.12953
H          H       0.27935   0.75142   0.30379   0.11635
H          H       0.25693   0.62047   0.32045   0.09232
H          H       0.30212   0.56436   0.34696   0.09394
H          H       0.42662   0.71383   0.29426   0.12047
H          H       0.38871   0.58396   0.29601   0.11964
H          H       0.47903   0.66928   0.32291   0.12082
H          H       0.59218   0.76540   0.45193   0.11435
H          H       0.71144   0.83301   0.43320   0.12776
H          H       0.66205   0.70467   0.44367   0.11071
H          H       0.58271   0.79050   0.39255   0.09786
H          H       0.63774   0.71520   0.38633   0.09327
H          H       0.62324   0.57674   0.40771   0.11345
H          H       0.49487   0.26062   0.45129   0.12266
H          H       0.32534   0.12724   0.47174   0.11023
H          H       0.17905   0.15629   0.46829   0.10678
H          H       0.20206   0.31728   0.44638   0.10448
H          H       0.97046   0.37666   0.07685   0.10112
H          H       0.83784   0.19774   0.06720   0.09681
H          H       0.83941   0.11048   0.01823   0.10760
H          H       0.97644   0.20585   0.97844   0.13031
H          H       0.24519   0.53026   0.96968   0.11706
H          H       0.37936   0.63544   0.98750   0.09194
H          H       0.43529   0.73795   0.01376   0.09423
H          H       0.28563   0.71087   0.96094   0.12140
H          H       0.41580   0.80284   0.96219   0.12026
H          H       0.33176   0.80940   0.98918   0.12153
H          H       0.23546   0.82618   0.11858   0.11404
H          H       0.16700   0.87590   0.09953   0.12795
H          H       0.29488   0.95702   0.11016   0.11043
H          H       0.21089   0.79097   0.05912   0.09845
H          H       0.28638   0.92183   0.05292   0.09321
H          H       0.42504   0.04629   0.07466   0.11312
H          H       0.74038   0.23459   0.11921   0.12305
H          H       0.87328   0.19830   0.13930   0.10998
H          H       0.84488   0.02321   0.13466   0.10730
H          H       0.68454   0.88529   0.11206   0.10543
H          H       0.62239   0.59227   0.74327   0.10150
H          H       0.80045   0.63758   0.73328   0.09728
H          H       0.88865   0.72920   0.68471   0.10698
H          H       0.79463   0.77433   0.64553   0.12953
H          H       0.47189   0.72013   0.63707   0.11590
H          H       0.36469   0.74390   0.65396   0.09169
H          H       0.26266   0.69762   0.68034   0.09427
H          H       0.28870   0.57373   0.62780   0.12049
H          H       0.19733   0.61210   0.62891   0.12008
H          H       0.19019   0.52163   0.65609   0.12100
H          H       0.17172   0.40826   0.78497   0.11485
H          H       0.11954   0.28865   0.76644   0.12878
H          H       0.04071   0.33801   0.77666   0.11048
H          H       0.20647   0.41680   0.72553   0.09839
H          H       0.07573   0.36170   0.71935   0.09306
H          H       0.95243   0.37618   0.74045   0.11199
H          H       0.76388   0.50265   0.78369   0.12327
H          H       0.79998   0.67146   0.80454   0.11039
H          H       0.97617   0.81818   0.80161   0.10656
H          H       0.11480   0.79655   0.77970   0.10544
C          C       0.39378   0.04719   0.96674   0.16920
C          C       0.33804   0.96996   0.94461  -0.18118
C          C       0.23816   0.89647   0.95015  -0.06111
C          C       0.18873   0.89711   0.97773  -0.10735
C          C       0.24083   0.97207  -0.00001  -0.15378
C          C       0.34193   0.04484   0.99468   0.03367
C          C       0.49267   0.19108   0.01152  -0.13476
C          C       0.54038   0.19529   0.98297   0.10461
C          C       0.63948   0.28048   0.97716   0.12737
C          C       0.69062   0.36666   0.00001  -0.18069
C          C       0.75710   0.34885   0.02323  -0.35908
C          C       0.88141   0.24112   0.89881  -0.35836
C          C       0.86067   0.27286   0.93080  -0.17407
C          C       0.84784   0.36430   0.93030   0.12781
C          C       0.92568   0.45999   0.91772   0.12334
C          C       0.02523   0.47862   0.91654  -0.14420
C          C       0.08167   0.64083   0.89444   0.03786
C          C       0.15925   0.73030   0.88154  -0.14957
C          C       0.13819   0.80355   0.87072  -0.10063
C          C       0.03954   0.78718   0.87334  -0.07381
C          C       0.96227   0.69821   0.88609  -0.18297
C          C       0.98048   0.62120   0.89679   0.17005
C          C       0.65372   0.60612   0.29968   0.16768
C          C       0.63113   0.66115   0.27770  -0.18102
C          C       0.65707   0.76071   0.28330  -0.06179
C          C       0.70798   0.81064   0.31075  -0.10725
C          C       0.73197   0.75930   0.33287  -0.15294
C          C       0.70397   0.65846   0.32752   0.03434
C          C       0.70025   0.50851   0.34432  -0.13531
C          C       0.65583   0.46024   0.31591   0.10541
C          C       0.64112   0.36100   0.31034   0.12628
C          C       0.67601   0.31033   0.33331  -0.18030
C          C       0.59108   0.24301   0.35636  -0.35856
C          C       0.35856   0.11582   0.23226  -0.35958
C          C       0.41008   0.13728   0.26445  -0.17359
C          C       0.51483   0.15113   0.26414   0.12787
C          C       0.53255   0.07340   0.25170   0.12304
C          C       0.45124   0.97366   0.25084  -0.14295
C          C       0.55674   0.91745   0.22877   0.03871
C          C       0.56816   0.83944   0.21630  -0.15143
C          C       0.66207   0.86047   0.20505  -0.09859
C          C       0.74442   0.95974   0.20676  -0.07273
C          C       0.73321   0.03745   0.21914  -0.18363
C          C       0.63849   0.01906   0.23046   0.16875
C          C       0.95155   0.34680   0.63303   0.16951
C          C       0.02924   0.36977   0.61098  -0.18086
C          C       0.10275   0.34381   0.61641  -0.06204
C          C       0.10128   0.29209   0.64371  -0.10776
C          C       0.02555   0.26725   0.66581  -0.15271
C          C       0.95304   0.29558   0.66069   0.03317
C          C       0.80639   0.29835   0.67758  -0.13324
C          C       0.80341   0.34423   0.64938   0.10392
C          C       0.71903   0.35909   0.64382   0.12743
C          C       0.63312   0.32423   0.66675  -0.18103
C          C       0.65118   0.40939   0.68969  -0.35721
C          C       0.75932   0.64195   0.56537  -0.35849
C          C       0.72841   0.59012   0.59752  -0.17344
C          C       0.63671   0.48540   0.59721   0.12741
C          C       0.54123   0.46753   0.58462   0.12204
C          C       0.52296   0.54869   0.58357  -0.14320
C          C       0.36048   0.44208   0.56161   0.03803
C          C       0.27077   0.42991   0.54906  -0.15007
C          C       0.19750   0.33552   0.53801  -0.09976
C          C       0.21429   0.25347   0.53998  -0.07297
C          C       0.30348   0.26547   0.55240  -0.18468
C          C       0.38023   0.36066   0.56350   0.16992
C          C       0.65319   0.04838   0.86698   0.16874
C          C       0.63016   0.97067   0.88903  -0.18081
C          C       0.65614   0.89717   0.88359  -0.06191
C          C       0.70781   0.89860   0.85630  -0.10732
C          C       0.73268   0.97434   0.83421  -0.15337
C          C       0.70440   0.04689   0.83933   0.03311
C          C       0.70170   0.19362   0.82244  -0.13341
C          C       0.65577   0.19655   0.85062   0.10418
C          C       0.64088   0.28093   0.85618   0.12683
C          C       0.67566   0.36685   0.83326  -0.18103
C          C       0.59053   0.34882   0.81031  -0.35706
C          C       0.35815   0.24066   0.93466  -0.35866
C          C       0.40993   0.27160   0.90251  -0.17403
C          C       0.51466   0.36326   0.90281   0.12836
C          C       0.53249   0.45872   0.91541   0.12217
C          C       0.45140   0.47705   0.91644  -0.14316
C          C       0.55792   0.63955   0.93840   0.03805
C          C       0.57006   0.72927   0.95096  -0.14993
C          C       0.66443   0.80252   0.96201  -0.10006
C          C       0.74648   0.78578   0.96004  -0.07330
C          C       0.73447   0.69653   0.94763  -0.18437
C          C       0.63929   0.61980   0.93652   0.17052
C          C       0.95287   0.60610   0.53325   0.16958
C          C       0.02999   0.66189   0.55540  -0.18064
C          C       0.10346   0.76182   0.54988  -0.06115
C          C       0.10278   0.81122   0.52229  -0.10733
C          C       0.02792   0.75912   0.50001  -0.15447
C          C       0.95521   0.65795   0.50530   0.03308
C          C       0.80905   0.50715   0.48845  -0.13438
C          C       0.80481   0.45949   0.51701   0.10429
C          C       0.71951   0.36045   0.52283   0.12686
C          C       0.63329   0.30943   0.49998  -0.18093
C          C       0.65090   0.24289   0.47673  -0.35967
C          C       0.75873   0.11852   0.60119  -0.35901
C          C       0.72702   0.13938   0.56921  -0.17489
C          C       0.63558   0.15217   0.56974   0.12865
C          C       0.53988   0.07433   0.58232   0.12259
C          C       0.52130   0.97475   0.58349  -0.14448
C          C       0.35909   0.91835   0.60557   0.03714
C          C       0.26959   0.84069   0.61841  -0.14977
C          C       0.19629   0.86164   0.62921  -0.09950
C          C       0.21269   0.96033   0.62662  -0.07438
C          C       0.30169   0.03768   0.61393  -0.18292
C          C       0.37875   0.01959   0.60324   0.16977
C          C       0.39364   0.34531   0.20013   0.16780
C          C       0.33871   0.36845   0.22200  -0.18125
C          C       0.23922   0.34261   0.21634  -0.05971
C          C       0.18915   0.29115   0.18897  -0.10890
C          C       0.24031   0.26646   0.16699  -0.15341
C          C       0.34110   0.29446   0.17238   0.03505
C          C       0.49084   0.29771   0.15564  -0.13467
C          C       0.53945   0.34302   0.18395   0.10526
C          C       0.63895   0.35832   0.18952   0.12640
C          C       0.68999   0.32377   0.16658  -0.18131
C          C       0.75707   0.40882   0.14354  -0.35809
C          C       0.88403   0.64151   0.26774  -0.36001
C          C       0.86264   0.59003   0.23553  -0.17254
C          C       0.84881   0.48524   0.23580   0.12697
C          C       0.92653   0.46753   0.24827   0.12272
C          C       0.02627   0.54882   0.24914  -0.14349
C          C       0.08247   0.44327   0.27117   0.03878
C          C       0.16050   0.43188   0.28363  -0.15104
C          C       0.13947   0.33792   0.29489  -0.09918
C          C       0.04020   0.25559   0.29319  -0.07278
C          C       0.96250   0.26678   0.28081  -0.18476
C          C       0.98086   0.36154   0.26949   0.16925
C          C       0.60612   0.95286   0.46674   0.16971
C          C       0.66190   0.03005   0.44460  -0.18107
C          C       0.76180   0.10350   0.45013  -0.06131
C          C       0.81120   0.10284   0.47772  -0.10720
C          C       0.75908   0.02793   0.50000  -0.15416
C          C       0.65795   0.95521   0.49469   0.03248
C          C       0.50721   0.80900   0.51154  -0.13491
C          C       0.45952   0.80475   0.48298   0.10454
C          C       0.36046   0.71950   0.47717   0.12663
C          C       0.30940   0.63330   0.50002  -0.18063
C          C       0.24294   0.65104   0.52326  -0.35946
C          C       0.11859   0.75894   0.39887  -0.35795
C          C       0.13926   0.72713   0.43087  -0.17466
C          C       0.15203   0.63565   0.43035   0.12824
C          C       0.07415   0.54002   0.41775   0.12317
C          C       0.97460   0.52137   0.41656  -0.14414
C          C       0.91820   0.35917   0.39445   0.03765
C          C       0.84061   0.26972   0.38156  -0.14957
C          C       0.86167   0.19647   0.37074  -0.10055
C          C       0.96032   0.21284   0.37337  -0.07364
C          C       0.03759   0.30181   0.38611  -0.18247
C          C       0.01938   0.37881   0.39682   0.17061
C          C       0.34548   0.39356   0.79980   0.16719
C          C       0.36859   0.33871   0.77791  -0.18150
C          C       0.34276   0.23917   0.78354  -0.06098
C          C       0.29133   0.18902   0.81090  -0.10851
C          C       0.26679   0.24017   0.83291  -0.15278
C          C       0.29479   0.34100   0.82757   0.03464
C          C       0.29802   0.49071   0.84434  -0.13475
C          C       0.34318   0.53936   0.81602   0.10451
C          C       0.35838   0.63885   0.81046   0.12764
C          C       0.32385   0.68994   0.83339  -0.18062
C          C       0.40889   0.75714   0.85643  -0.35821
C          C       0.64150   0.88418   0.73226  -0.35998
C          C       0.58999   0.86266   0.76447  -0.17261
C          C       0.48518   0.84874   0.76418   0.12733
C          C       0.46745   0.92649   0.75174   0.12295
C          C       0.54876   0.02627   0.75087  -0.14316
C          C       0.44322   0.08247   0.72883   0.03936
C          C       0.43179   0.16049   0.71637  -0.15218
C          C       0.33792   0.13946   0.70509  -0.09850
C          C       0.25559   0.04018   0.70678  -0.07298
C          C       0.26681   0.96248   0.71916  -0.18282
C          C       0.36151   0.98086   0.73050   0.16865
C          C       0.04846   0.65316   0.13303   0.16940
C          C       0.97076   0.63016   0.11099  -0.18094
C          C       0.89726   0.65614   0.11643  -0.06156
C          C       0.89873   0.70785   0.14373  -0.10776
C          C       0.97450   0.73273   0.16581  -0.15314
C          C       0.04701   0.70441   0.16068   0.03349
C          C       0.19369   0.70168   0.17757  -0.13282
C          C       0.19662   0.65576   0.14937   0.10390
C          C       0.28097   0.64085   0.14382   0.12703
C          C       0.36688   0.67568   0.16674  -0.18099
C          C       0.34879   0.59051   0.18969  -0.35713
C          C       0.24068   0.35808   0.06533  -0.35817
C          C       0.27157   0.40983   0.09749  -0.17386
C          C       0.36324   0.51455   0.09720   0.12861
C          C       0.45873   0.53243   0.08460   0.12155
C          C       0.47695   0.45126   0.08355  -0.14336
C          C       0.63945   0.55781   0.06160   0.03763
C          C       0.72917   0.56996   0.04907  -0.14980
C          C       0.80247   0.66434   0.03801  -0.09962
C          C       0.78570   0.74641   0.03995  -0.07311
C          C       0.69652   0.73445   0.05238  -0.18391
C          C       0.61974   0.63927   0.06349   0.17016
C          C       0.34677   0.95163   0.36697   0.16870
C          C       0.36982   0.02932   0.38903  -0.18076
C          C       0.34387   0.10284   0.38360  -0.06218
C          C       0.29225   0.10148   0.35630  -0.10761
C          C       0.26734   0.02574   0.33420  -0.15315
C          C       0.29556   0.95315   0.33933   0.03362
C          C       0.29819   0.80638   0.32243  -0.13290
C          C       0.34411   0.80343   0.35062   0.10419
C          C       0.35902   0.71905   0.35618   0.12695
C          C       0.32434   0.63317   0.33326  -0.18096
C          C       0.40951   0.65122   0.31033  -0.35712
C          C       0.64168   0.75920   0.43469  -0.35829
C          C       0.58974   0.72830   0.40257  -0.17392
C          C       0.48504   0.63665   0.40287   0.12716
C          C       0.46719   0.54117   0.41548   0.12291
C          C       0.54823   0.52278   0.41646  -0.14328
C          C       0.44171   0.36033   0.43846   0.03840
C          C       0.42960   0.27061   0.45101  -0.15076
C          C       0.33523   0.19733   0.46206  -0.09939
C          C       0.25316   0.21406   0.46008  -0.07281
C          C       0.26516   0.30334   0.44769  -0.18343
C          C       0.36035   0.38010   0.43659   0.17021
C          C       0.04721   0.39383   0.03324   0.16949
C          C       0.97001   0.33808   0.05537  -0.18088
C          C       0.89652   0.23818   0.04984  -0.06085
C          C       0.89719   0.18878   0.02225  -0.10767
C          C       0.97212   0.24084  -0.00001  -0.15395
C          C       0.04489   0.34197   0.00530   0.03424
C          C       0.19110   0.49273   0.98846  -0.13505
C          C       0.19529   0.54041   0.01701   0.10454
C          C       0.28050   0.63950   0.02284   0.12793
C          C       0.36669   0.69062  -0.00000  -0.18066
C          C       0.34888   0.75709   0.97677  -0.35956
C          C       0.24121   0.88141   0.10121  -0.35887
C          C       0.27291   0.86063   0.06921  -0.17481
C          C       0.36435   0.84781   0.06972   0.12835
C          C       0.46006   0.92565   0.08230   0.12279
C          C       0.47865   0.02524   0.08346  -0.14405
C          C       0.64082   0.08163   0.10556   0.03805
C          C       0.73030   0.15924   0.11844  -0.14962
C          C       0.80354   0.13821   0.12925  -0.10059
C          C       0.78717   0.03954   0.12663  -0.07403
C          C       0.69820   0.96224   0.11392  -0.18418
C          C       0.62118   0.98039   0.10322   0.16997
C          C       0.60616   0.65473   0.70011   0.16816
C          C       0.66123   0.63160   0.72193  -0.18129
C          C       0.76070   0.65751   0.71622  -0.06168
C          C       0.81067   0.70909   0.68885  -0.10684
C          C       0.75936   0.73376   0.66692  -0.15395
C          C       0.65857   0.70566   0.67234   0.03419
C          C       0.50869   0.70229   0.65571  -0.13338
C          C       0.46025   0.65694   0.68403   0.10453
C          C       0.36079   0.64164   0.68961   0.12665
C          C       0.30968   0.67611   0.66666  -0.18185
C          C       0.24279   0.59107   0.64358  -0.35745
C          C       0.11584   0.35838   0.76776  -0.36044
C          C       0.13723   0.40988   0.73555  -0.17314
C          C       0.15103   0.51466   0.73586   0.12818
C          C       0.07330   0.53237   0.74830   0.12308
C          C       0.97355   0.45110   0.74916  -0.14332
C          C       0.91742   0.55672   0.77116   0.03922
C          C       0.83941   0.56817   0.78361  -0.15178
C          C       0.86046   0.66212   0.79487  -0.09911
C          C       0.95975   0.74441   0.79317  -0.07269
C          C       0.03743   0.73318   0.78081  -0.18461
C          C       0.01904   0.63841   0.76949   0.16924
N          N       0.39698   0.11938   0.01746   0.29882
N          N       0.49142   0.12097   0.96090  -0.30655
N          N       0.68735   0.27808   0.95144  -0.15468
N          N       0.76855   0.36483   0.94255  -0.15383
N          N       0.90344   0.53216   0.90840  -0.30249
N          N       0.10224   0.56650   0.90592   0.30205
N          N       0.72418   0.60399   0.35022   0.29925
N          N       0.62987   0.50860   0.29388  -0.30522
N          N       0.59010   0.31242   0.28475  -0.15509
N          N       0.59512   0.23102   0.27612  -0.15285
N          N       0.62685   0.09615   0.24198  -0.30197
N          N       0.46180   0.89677   0.24026   0.30150
N          N       0.87772   0.27419   0.68332   0.29888
N          N       0.87823   0.37103   0.62740  -0.30749
N          N       0.72206   0.41041   0.61825  -0.15659
N          N       0.63568   0.40530   0.60947  -0.15293
N          N       0.46918   0.37292   0.57507  -0.30182
N          N       0.43496   0.53734   0.57309   0.30178
N          N       0.72574   0.12219   0.81669   0.29938
N          N       0.62893   0.12168   0.87259  -0.30686
N          N       0.58960   0.27792   0.88175  -0.15504
N          N       0.59475   0.36431   0.89055  -0.15416
N          N       0.62705   0.53084   0.92496  -0.30262
N          N       0.46274   0.56506   0.92690   0.30179
N          N       0.88062   0.60293   0.48252   0.29895
N          N       0.87910   0.50842   0.53909  -0.30619
N          N       0.72185   0.31266   0.54858  -0.15454
N          N       0.63509   0.23149   0.55748  -0.15331
N          N       0.46782   0.09666   0.59166  -0.30223
N          N       0.43339   0.89775   0.59409   0.30194
N          N       0.39532   0.27368   0.14975   0.29813
N          N       0.49119   0.36932   0.20592  -0.30585
N          N       0.68757   0.40974   0.21507  -0.15617
N          N       0.76909   0.40497   0.22373  -0.15181
N          N       0.90378   0.37318   0.25797  -0.30168
N          N       0.10318   0.53825   0.25968   0.30134
N          N       0.60291   0.88067   0.51747   0.29981
N          N       0.50847   0.87908   0.46090  -0.30623
N          N       0.31253   0.72187   0.45146  -0.15434
N          N       0.23134   0.63511   0.44258  -0.15335
N          N       0.09639   0.46784   0.40844  -0.30334
N          N       0.89763   0.43349   0.40593   0.30210
N          N       0.27409   0.39518   0.85023   0.29833
N          N       0.36942   0.49112   0.79402  -0.30586
N          N       0.40970   0.68743   0.78489  -0.15664
N          N       0.40492   0.76895   0.77623  -0.15170
N          N       0.37314   0.90376   0.74202  -0.30238
N          N       0.53816   0.10317   0.74032   0.30119
N          N       0.12234   0.72581   0.18331   0.29853
N          N       0.12177   0.62892   0.12741  -0.30719
N          N       0.27791   0.58954   0.11825  -0.15551
N          N       0.36427   0.59463   0.10946  -0.15404
N          N       0.53079   0.62704   0.07505  -0.30181
N          N       0.56493   0.46256   0.07308   0.30179
N          N       0.27421   0.87786   0.31668   0.29884
N          N       0.37098   0.87829   0.37258  -0.30717
N          N       0.41015   0.72200   0.38178  -0.15589
N          N       0.40499   0.63560   0.39059  -0.15216
N          N       0.37264   0.46909   0.42504  -0.30273
N          N       0.53684   0.43472   0.42692   0.30173
N          N       0.11946   0.39697   0.98253   0.29929
N          N       0.12099   0.49149   0.03909  -0.30669
N          N       0.27809   0.68728   0.04858  -0.15478
N          N       0.36483   0.76847   0.05748  -0.15393
N          N       0.53214   0.90333   0.09162  -0.30230
N          N       0.56653   0.10224   0.09409   0.30170
N          N       0.60419   0.72648   0.64977   0.29832
N          N       0.50862   0.63067   0.70597  -0.30579
N          N       0.31228   0.59025   0.71517  -0.15534
N          N       0.23077   0.59499   0.72383  -0.15264
N          N       0.09612   0.62674   0.75800  -0.30216
N          N       0.89666   0.46171   0.75969   0.30065
O          O       0.19618   0.58614   0.90608  -0.43778
O          O       0.35118   0.11477   0.04407  -0.44646
O          O       0.38697   0.80285   0.24037  -0.43518
O          O       0.76516   0.64963   0.37689  -0.44781
O          O       0.41516   0.61143   0.57319  -0.43659
O          O       0.88136   0.23137   0.70969  -0.44766
O          O       0.38862   0.58480   0.92677  -0.43660
O          O       0.76843   0.11844   0.79031  -0.44824
O          O       0.41362   0.80374   0.59394  -0.43672
O          O       0.88500   0.64878   0.45594  -0.44715
O          O       0.19711   0.61307   0.25963  -0.43556
O          O       0.34923   0.23203   0.12317  -0.44687
O          O       0.80366   0.41380   0.40607  -0.43735
O          O       0.64873   0.88522   0.54407  -0.44671
O          O       0.61294   0.19712   0.74038  -0.43542
O          O       0.23263   0.34910   0.87682  -0.44664
O          O       0.58458   0.38837   0.07318  -0.43654
O          O       0.11872   0.76864   0.20968  -0.44816
O          O       0.61084   0.41482   0.42674  -0.43693
O          O       0.23157   0.88167   0.29030  -0.44791
O          O       0.58627   0.19625   0.09395  -0.43735
O          O       0.11489   0.35112   0.95593  -0.44671
O          O       0.80269   0.38693   0.75963  -0.43466
O          O       0.65000   0.76845   0.62320  -0.44786

