data_crystal

_audit_creation_method 'AiiDA-DDEC plugin'

_cell_length_a        28.28099
_cell_length_b        34.45908
_cell_length_c        36.42167

_cell_angle_alpha     109.28691
_cell_angle_beta     90.01034
_cell_angle_gamma     89.98153

_symmetry_space_group_name_Hall 'P 1'
_symmetry_space_group_name_H-M  'P 1'

loop_
_symmetry_equiv_pos_as_xyz
 'x,y,z'

loop_
_atom_site_label
_atom_site_type_symbol
_atom_site_fract_x
_atom_site_fract_y
_atom_site_fract_z
_atom_site_charge
Zn         Zn      0.46556   0.19475   0.40153   0.96575
Zn         Zn      0.49623   0.28430   0.39576   0.95551
Zn         Zn      0.01750   0.71033   0.32118   0.95239
Zn         Zn      0.57216   0.20963   0.37844   0.96836
Zn         Zn      0.00358   0.63351   0.87098   0.95815
Zn         Zn      0.98467   0.70986   0.94368   0.94519
Zn         Zn      0.53177   0.22025   0.86248   0.96427
Zn         Zn      0.07629   0.71002   0.89152   0.97298
Zn         Zn      0.03437   0.69472   0.40148   0.96440
Zn         Zn      0.00378   0.78433   0.39576   0.95552
Zn         Zn      0.48253   0.21031   0.32123   0.95244
Zn         Zn      0.92787   0.70963   0.37837   0.96869
Zn         Zn      0.49613   0.13350   0.87078   0.95835
Zn         Zn      0.51522   0.20993   0.94363   0.94477
Zn         Zn      0.96786   0.72000   0.86254   0.96152
Zn         Zn      0.42307   0.20993   0.89154   0.97098
Zn         Zn      0.96563   0.30528   0.59852   0.96454
Zn         Zn      0.99622   0.21567   0.60425   0.95554
Zn         Zn      0.51747   0.78969   0.67877   0.95238
Zn         Zn      0.07214   0.29037   0.62163   0.96879
Zn         Zn      0.50387   0.86650   0.12923   0.95830
Zn         Zn      0.48478   0.79006   0.05637   0.94487
Zn         Zn      0.03214   0.28000   0.13747   0.96133
Zn         Zn      0.57693   0.79007   0.10846   0.97100
Zn         Zn      0.53445   0.80525   0.59847   0.96587
Zn         Zn      0.50377   0.71570   0.60424   0.95544
Zn         Zn      0.98250   0.28967   0.67882   0.95242
Zn         Zn      0.42784   0.79037   0.62156   0.96856
Zn         Zn      0.99642   0.36649   0.12902   0.95806
Zn         Zn      0.01533   0.29014   0.05632   0.94508
Zn         Zn      0.46823   0.77975   0.13752   0.96425
Zn         Zn      0.92372   0.28998   0.10848   0.97298
H          H       0.34700   0.34211   0.62219   0.27362
H          H       0.27697   0.51238   0.78502   0.28510
H          H       0.40288   0.36566   0.73722   0.27400
H          H       0.13570   0.87668   0.21713   0.27769
H          H       0.26314   0.01748   0.26637   0.27484
H          H       0.10305   0.90897   0.12197   0.27151
H          H       0.87670   0.52601   0.14248   0.27528
H          H       0.84107   0.55561   0.04470   0.27952
H          H       0.72033   0.41251   0.99854   0.28038
H          H       0.59437   0.04786   0.52658   0.27311
H          H       0.64917   0.07094   0.64358   0.28172
H          H       0.77833   0.94419   0.50679   0.27745
H          H       0.42825   0.35591   0.49170   0.12500
H          H       0.39637   0.39546   0.55743   0.13963
H          H       0.36219   0.28112   0.57529   0.11617
H          H       0.39369   0.24228   0.50957   0.12438
H          H       0.29500   0.46402   0.66150   0.14058
H          H       0.28190   0.44411   0.77219   0.12896
H          H       0.37033   0.36481   0.68267   0.10264
H          H       0.15776   0.51193   0.75144   0.13971
H          H       0.09541   0.55782   0.79161   0.12082
H          H       0.20187   0.63035   0.86810   0.12454
H          H       0.26399   0.58335   0.82978   0.12536
H          H       0.32421   0.32127   0.79391   0.13694
H          H       0.35494   0.27574   0.82946   0.12672
H          H       0.49657   0.29314   0.79594   0.12151
H          H       0.46656   0.33792   0.75956   0.11671
H          H       0.05168   0.87815   0.35182   0.12705
H          H       0.08886   0.92262   0.31766   0.13753
H          H       0.10895   0.81549   0.21628   0.11682
H          H       0.07111   0.77193   0.25045   0.12489
H          H       0.18965  -0.00019   0.26644   0.12487
H          H       0.22524   0.98476   0.14699   0.13747
H          H       0.13007   0.90031   0.17357   0.10060
H          H       0.29527   0.10522   0.23341   0.13726
H          H       0.35690   0.15599   0.26868   0.12291
H          H       0.37451   0.09177   0.35085   0.13196
H          H       0.31525   0.04064   0.31549   0.11402
H          H       0.04482   0.86866   0.08993   0.11602
H          H       0.01797   0.80869   0.03429   0.12357
H          H       0.15574   0.79906   0.98277   0.12556
H          H       0.18374   0.85888   0.03906   0.13769
H          H       0.96995   0.62228   0.22613   0.12408
H          H       0.93627   0.56665   0.16994   0.11703
H          H       0.80494   0.57437   0.23207   0.12833
H          H       0.84000   0.62926   0.28879   0.12816
H          H       0.84947   0.53408   0.09081   0.10286
H          H       0.78727   0.43308   0.00155   0.12089
H          H       0.75097   0.45521   0.12218   0.11854
H          H       0.86858   0.61514   0.04292   0.11794
H          H       0.91565   0.65464   0.00954   0.12409
H          H       0.94666   0.54323   0.91661   0.12097
H          H       0.90022   0.50266   0.94999   0.13803
H          H       0.67851   0.38123   0.94430   0.11961
H          H       0.62565   0.32415   0.90665   0.12430
H          H       0.62419   0.27727   0.00206   0.12236
H          H       0.67714   0.33453   0.04047   0.13580
H          H       0.49966   0.11934   0.46849   0.12327
H          H       0.53111   0.07555   0.50535   0.11384
H          H       0.67162   0.08705   0.46430   0.14210
H          H       0.63968   0.13205   0.42871   0.12490
H          H       0.62610   0.05040   0.58186   0.10535
H          H       0.68844   0.94495   0.60192   0.13243
H          H       0.71362   0.96851   0.49405   0.12587
H          H       0.64504   0.13060   0.69487   0.11745
H          H       0.61365   0.16961   0.76053   0.12354
H          H       0.54796   0.05990   0.76697   0.12482
H          H       0.57900   0.02018   0.70106   0.13973
H          H       0.84893   0.92983   0.47648   0.12284
H          H       0.90674   0.87752   0.43837   0.12704
H          H       0.82349   0.78189   0.45755   0.12189
H          H       0.76697   0.83435   0.49844   0.13672
H          H       0.15297   0.84181   0.62216   0.27342
H          H       0.22252   0.01276   0.78408   0.28439
H          H       0.09608   0.86545   0.73686   0.28223
H          H       0.36412   0.37665   0.21729   0.27734
H          H       0.23731   0.51774   0.26666   0.27443
H          H       0.39687   0.40867   0.12217   0.27109
H          H       0.62343   0.02650   0.14235   0.27458
H          H       0.65797   0.05557   0.04484   0.27182
H          H       0.77919   0.91227   0.99818   0.28014
H          H       0.90568   0.54785   0.52641   0.27330
H          H       0.85085   0.57098   0.64339   0.27469
H          H       0.72224   0.44384   0.50615   0.28470
H          H       0.07176   0.85583   0.49177   0.12502
H          H       0.10370   0.89525   0.55755   0.13969
H          H       0.13765   0.78079   0.57525   0.11634
H          H       0.10608   0.74207   0.50947   0.12448
H          H       0.20587   0.96298   0.66125   0.14110
H          H       0.21815   0.94360   0.77223   0.12848
H          H       0.12925   0.86468   0.68278   0.10212
H          H       0.34266   0.01193   0.75146   0.14009
H          H       0.40438   0.05835   0.79184   0.12046
H          H       0.29698   0.13091   0.86726   0.12829
H          H       0.23536   0.08342   0.82871   0.12525
H          H       0.17420   0.82148   0.79445   0.14059
H          H       0.14303   0.77604   0.82986   0.12338
H          H       0.00169   0.79376   0.79583   0.12167
H          H       0.03222   0.83844   0.75957   0.11632
H          H       0.44845   0.37817   0.35191   0.12440
H          H       0.41114   0.42265   0.31781   0.14010
H          H       0.39099   0.31554   0.21641   0.11693
H          H       0.42896   0.27196   0.25052   0.12479
H          H       0.31051   0.49980   0.26661   0.12509
H          H       0.27555   0.48552   0.14717   0.13801
H          H       0.37006   0.40046   0.17355   0.10059
H          H       0.20473   0.60536   0.23364   0.13758
H          H       0.14302   0.65604   0.26900   0.12260
H          H       0.12542   0.59147   0.35086   0.12759
H          H       0.18478   0.54053   0.31553   0.11603
H          H       0.45530   0.36873   0.08984   0.11635
H          H       0.48184   0.30854   0.03429   0.12387
H          H       0.34402   0.29926   0.98284   0.12723
H          H       0.31628   0.35938   0.03902   0.13718
H          H       0.53028   0.12253   0.22601   0.12431
H          H       0.56395   0.06689   0.16982   0.11729
H          H       0.69496   0.07393   0.23228   0.12809
H          H       0.65993   0.12889   0.28897   0.12783
H          H       0.65073   0.03441   0.09090   0.10328
H          H       0.71255   0.93346   0.00136   0.12205
H          H       0.74834   0.95470   0.12199   0.11882
H          H       0.63118   0.11530   0.04257   0.11829
H          H       0.58394   0.15469   0.00925   0.12432
H          H       0.55164   0.04298   0.91703   0.12099
H          H       0.59852   0.00261   0.95041   0.13742
H          H       0.82140   0.88111   0.94413   0.11963
H          H       0.87443   0.82403   0.90670   0.12448
H          H       0.87575   0.77745   0.00231   0.12181
H          H       0.82265   0.83469   0.04049   0.13552
H          H       0.00042   0.61949   0.46836   0.12430
H          H       0.96909   0.57565   0.50523   0.11385
H          H       0.82847   0.58719   0.46427   0.13882
H          H       0.86032   0.63222   0.42868   0.12495
H          H       0.87395   0.55066   0.58169   0.10577
H          H       0.81167   0.44513   0.60175   0.13263
H          H       0.78645   0.46864   0.49398   0.12464
H          H       0.85483   0.63057   0.69465   0.11743
H          H       0.88625   0.66967   0.76040   0.12426
H          H       0.95196   0.55988   0.76680   0.12505
H          H       0.92090   0.52021   0.70092   0.13948
H          H       0.65127   0.42982   0.47680   0.12306
H          H       0.59340   0.37762   0.43863   0.12722
H          H       0.67622   0.28184   0.45794   0.12186
H          H       0.73276   0.33419   0.49907   0.13604
H          H       0.84703   0.15819   0.37784   0.27430
H          H       0.77748   0.98724   0.21592   0.28438
H          H       0.90392   0.13455   0.26314   0.27661
H          H       0.63589   0.62335   0.78271   0.27776
H          H       0.76270   0.48226   0.73335   0.27425
H          H       0.60313   0.59133   0.87784   0.27083
H          H       0.37657   0.97350   0.85766   0.27478
H          H       0.34203   0.94443   0.95516   0.27167
H          H       0.22081   0.08773   0.00182   0.28042
H          H       0.09433   0.45215   0.47359   0.27908
H          H       0.14915   0.42902   0.35661   0.27492
H          H       0.27776   0.55616   0.49385   0.28490
H          H       0.92825   0.14417   0.50823   0.12525
H          H       0.89630   0.10475   0.44245   0.13975
H          H       0.86235   0.21921   0.42475   0.11596
H          H       0.89392   0.25793   0.49053   0.12443
H          H       0.79413   0.03702   0.33876   0.14136
H          H       0.78185   0.05640   0.22778   0.12821
H          H       0.87075   0.13532   0.31722   0.10233
H          H       0.65735   0.98807   0.24854   0.14007
H          H       0.59562   0.94165   0.20816   0.12029
H          H       0.70302   0.86909   0.13274   0.12826
H          H       0.76464   0.91658   0.17129   0.12536
H          H       0.82581   0.17852   0.20555   0.14052
H          H       0.85697   0.22395   0.17015   0.12318
H          H       0.99831   0.20624   0.20417   0.12184
H          H       0.96778   0.16156   0.24044   0.11663
H          H       0.55155   0.62183   0.64809   0.12415
H          H       0.58887   0.57735   0.68219   0.14008
H          H       0.60901   0.68445   0.78360   0.11705
H          H       0.57104   0.72804   0.74948   0.12472
H          H       0.68950   0.50020   0.73339   0.12495
H          H       0.72445   0.51448   0.85284   0.14145
H          H       0.62994   0.59954   0.82645   0.10020
H          H       0.79527   0.39464   0.76636   0.13778
H          H       0.85699   0.34396   0.73100   0.12283
H          H       0.87458   0.40853   0.64914   0.12752
H          H       0.81522   0.45946   0.68447   0.11581
H          H       0.54470   0.63127   0.91017   0.11614
H          H       0.51817   0.69146   0.96572   0.12359
H          H       0.65599   0.70074   0.01716   0.12735
H          H       0.68372   0.64062   0.96098   0.13745
H          H       0.46973   0.87747   0.77400   0.12461
H          H       0.43605   0.93311   0.83018   0.11741
H          H       0.30504   0.92607   0.76772   0.12786
H          H       0.34007   0.87111   0.71103   0.12768
H          H       0.34927   0.96559   0.90910   0.10351
H          H       0.28746   0.06654   0.99864   0.12214
H          H       0.25166   0.04530   0.87801   0.11859
H          H       0.36882   0.88470   0.95743   0.11807
H          H       0.41607   0.84531   0.99075   0.12434
H          H       0.44836   0.95702   0.08297   0.12120
H          H       0.40148   0.99739   0.04959   0.13734
H          H       0.17860   0.11889   0.05587   0.11994
H          H       0.12558   0.17597   0.09330   0.12461
H          H       0.12425   0.22254   0.99769   0.12160
H          H       0.17735   0.16531   0.95951   0.13531
H          H      -0.00041   0.38051   0.53165   0.12420
H          H       0.03092   0.42435   0.49477   0.11345
H          H       0.17153   0.41281   0.53573   0.13895
H          H       0.13968   0.36778   0.57132   0.12533
H          H       0.12605   0.44934   0.41832   0.10324
H          H       0.18834   0.55487   0.39825   0.13586
H          H       0.21355   0.53136   0.50602   0.12495
H          H       0.14518   0.36943   0.30535   0.11760
H          H       0.11376   0.33033   0.23960   0.12440
H          H       0.04805   0.44012   0.23320   0.12471
H          H       0.07910   0.47979   0.29908   0.13936
H          H       0.34873   0.57018   0.52320   0.12328
H          H       0.40661   0.62238   0.56137   0.12740
H          H       0.32379   0.71815   0.54206   0.12166
H          H       0.26725   0.66581   0.50093   0.13589
H          H       0.65300   0.65789   0.37781   0.27345
H          H       0.72303   0.48762   0.21498   0.28472
H          H       0.59712   0.63434   0.26278   0.27731
H          H       0.86431   0.12332   0.78288   0.27774
H          H       0.73686   0.98252   0.73364   0.27549
H          H       0.89695   0.09103   0.87803   0.27158
H          H       0.12331   0.47399   0.85752   0.27533
H          H       0.15893   0.44439   0.95530   0.27964
H          H       0.27967   0.58748   0.00146   0.28084
H          H       0.40563   0.95214   0.47343   0.27917
H          H       0.35083   0.92906   0.35642   0.28177
H          H       0.22168   0.05581   0.49321   0.27781
H          H       0.57175   0.64409   0.50831   0.12505
H          H       0.60364   0.60454   0.44257   0.13972
H          H       0.63782   0.71888   0.42472   0.11605
H          H       0.60631   0.75772   0.49043   0.12432
H          H       0.70500   0.53598   0.33851   0.14075
H          H       0.71810   0.55589   0.22781   0.12888
H          H       0.62968   0.63518   0.31733   0.10234
H          H       0.84224   0.48807   0.24856   0.13986
H          H       0.90460   0.44218   0.20840   0.12104
H          H       0.79813   0.36965   0.13190   0.12450
H          H       0.73602   0.41664   0.17022   0.12522
H          H       0.67580   0.67873   0.20609   0.13705
H          H       0.64506   0.72426   0.17055   0.12668
H          H       0.50343   0.70686   0.20406   0.12132
H          H       0.53344   0.66208   0.24045   0.11668
H          H       0.94832   0.12185   0.64818   0.12702
H          H       0.91114   0.07738   0.68235   0.13738
H          H       0.89106   0.18451   0.78372   0.11685
H          H       0.92889   0.22807   0.74955   0.12489
H          H       0.81035   0.00019   0.73356   0.12462
H          H       0.77477   0.01524   0.85302   0.13763
H          H       0.86994   0.09969   0.82643   0.10063
H          H       0.70473   0.89478   0.76660   0.13761
H          H       0.64311   0.84401   0.73132   0.12306
H          H       0.62549   0.90823   0.64915   0.13171
H          H       0.68475   0.95936   0.68451   0.11382
H          H       0.95519   0.13134   0.91007   0.11607
H          H       0.98203   0.19131   0.96571   0.12366
H          H       0.84427   0.20094   0.01724   0.12554
H          H       0.81626   0.14111   0.96094   0.13758
H          H       0.03005   0.37772   0.77387   0.12399
H          H       0.06374   0.43334   0.83006   0.11702
H          H       0.19507   0.42563   0.76794   0.12841
H          H       0.16000   0.37074   0.71121   0.12818
H          H       0.15054   0.46592   0.90919   0.10285
H          H       0.21274   0.56692   0.99845   0.11915
H          H       0.24903   0.54479   0.87782   0.11846
H          H       0.13142   0.38486   0.95708   0.11797
H          H       0.08435   0.34536   0.99046   0.12424
H          H       0.05334   0.45676   0.08339   0.12101
H          H       0.09978   0.49734   0.05001   0.13797
H          H       0.32150   0.61876   0.05570   0.11983
H          H       0.37435   0.67585   0.09335   0.12460
H          H       0.37581   0.72273   0.99795   0.12228
H          H       0.32287   0.66547   0.95954   0.13553
H          H       0.50034   0.88066   0.53151   0.12347
H          H       0.46889   0.92445   0.49466   0.11391
H          H       0.32838   0.91294   0.53570   0.14199
H          H       0.36032   0.86794   0.57129   0.12499
H          H       0.37390   0.94960   0.41814   0.10532
H          H       0.31157   0.05504   0.39808   0.13209
H          H       0.28638   0.03149   0.50595   0.12600
H          H       0.35496   0.86940   0.30514   0.11754
H          H       0.38635   0.83038   0.23947   0.12359
H          H       0.45205   0.94010   0.23303   0.12475
H          H       0.42101   0.97981   0.29894   0.13979
H          H       0.15107   0.07017   0.52352   0.12288
H          H       0.09326   0.12248   0.56163   0.12707
H          H       0.17652   0.21810   0.54245   0.12179
H          H       0.23304   0.16565   0.50156   0.13680
C          C       0.43374   0.27422   0.45766   0.59801
C          C       0.41307   0.29675   0.49648  -0.06957
C          C       0.41359   0.33991   0.51029  -0.07137
C          C       0.39610   0.36214   0.54689  -0.19000
C          C       0.37759   0.34085   0.57062   0.24666
C          C       0.37667   0.29753   0.55691  -0.21008
C          C       0.39420   0.27571   0.52023  -0.07537
C          C       0.35378   0.40275   0.62724   0.46740
C          C       0.33513   0.41341   0.66792  -0.03110
C          C       0.30478   0.44725   0.68097  -0.09414
C          C       0.28600   0.45901   0.71864  -0.02456
C          C       0.29758   0.43684   0.74334  -0.12841
C          C       0.32808   0.40291   0.73054  -0.02811
C          C       0.34693   0.39135   0.69290  -0.16291
C          C       0.24956   0.49253   0.72967   0.47209
C          C       0.21472   0.54459   0.78820   0.25052
C          C       0.16710   0.53760   0.77704  -0.17841
C          C       0.13250   0.56332   0.79939  -0.08382
C          C       0.14456   0.59702   0.83219  -0.06765
C          C       0.19227   0.60433   0.84276  -0.07612
C          C       0.22706   0.57798   0.82116  -0.19864
C          C       0.10649   0.62458   0.85452   0.59817
C          C       0.33526   0.37895   0.75774   0.46327
C          C       0.39330   0.33250   0.77454   0.24588
C          C       0.36166   0.31475   0.79419  -0.18508
C          C       0.37904   0.28959   0.81411  -0.07281
C          C       0.42761   0.28175   0.81510  -0.07069
C          C       0.45895   0.29925   0.79507  -0.07540
C          C       0.44203   0.32427   0.77485  -0.21178
C          C       0.44566   0.25579   0.83764   0.59909
C          C       0.03789   0.79553   0.32396   0.59244
C          C       0.05903   0.82228   0.30339  -0.06401
C          C       0.06417   0.86479   0.32206  -0.07178
C          C       0.08490   0.88978   0.30326  -0.18770
C          C       0.10140   0.87190   0.26493   0.24601
C          C       0.09621   0.82929   0.24599  -0.21136
C          C       0.07514   0.80483   0.26494  -0.07415
C          C       0.13441   0.93570   0.25458   0.46081
C          C       0.15845   0.94820   0.22337  -0.02390
C          C       0.18754   0.98308   0.23536  -0.13097
C          C       0.21186   0.99613   0.20802  -0.02057
C          C       0.20634   0.97463   0.16822  -0.09234
C          C       0.17663   0.94033   0.15581  -0.02436
C          C       0.15290   0.92722   0.18350  -0.16572
C          C       0.24367   0.03320   0.21923   0.46577
C          C       0.30086   0.07005   0.27242   0.24627
C          C       0.31258   0.10277   0.25910  -0.19167
C          C       0.34688   0.13087   0.27891  -0.07683
C          C       0.36924   0.12756   0.31219  -0.07130
C          C       0.35691   0.09505   0.32551  -0.06769
C          C       0.32334   0.06645   0.30561  -0.20209
C          C       0.40667   0.15730   0.33216   0.59780
C          C       0.17331   0.91650   0.11310   0.46432
C          C       0.11616   0.86709   0.06811   0.24766
C          C       0.06912   0.85331   0.06642  -0.21208
C          C       0.05402   0.81993   0.03548  -0.07491
C          C       0.08540   0.80000   0.00520  -0.06904
C          C       0.13186   0.81457   0.00648  -0.06975
C          C       0.14767   0.84782   0.03766  -0.18899
C          C       0.06853   0.76385   0.97262   0.59659
C          C       0.92843   0.66294   0.29399   0.59864
C          C       0.90697   0.62956   0.26093  -0.06745
C          C       0.93407   0.61147   0.22725  -0.07258
C          C       0.91513   0.58046   0.19600  -0.21021
C          C       0.86831   0.56714   0.19737   0.24692
C          C       0.84099   0.58465   0.23104  -0.17987
C          C       0.86068   0.61551   0.26251  -0.06874
C          C       0.80681   0.52145   0.15345   0.47685
C          C       0.80159   0.49689   0.11109  -0.02255
C          C       0.82562   0.50780   0.08224  -0.15747
C          C       0.81939   0.48524   0.04279  -0.02332
C          C       0.78914   0.45117   0.03234  -0.12487
C          C       0.76373   0.44076   0.06080  -0.02840
C          C       0.77017   0.46374   0.10014  -0.08645
C          C       0.84481   0.49519   0.01077   0.46453
C          C       0.88185   0.55635   0.99859   0.25082
C          C       0.88599   0.59933   0.01533  -0.20953
C          C       0.91212   0.62148   0.99690  -0.06964
C          C       0.93430   0.60130   0.96117  -0.06926
C          C       0.92969   0.55852   0.94444  -0.06792
C          C       0.90388   0.53575   0.96280  -0.18575
C          C       0.96117   0.62593   0.94158   0.59571
C          C       0.72972   0.40526   0.05146   0.46781
C          C       0.68131   0.36127   0.99476   0.25002
C          C       0.66662   0.35836   0.95695  -0.20752
C          C       0.63720   0.32654   0.93580  -0.07411
C          C       0.62176   0.29704   0.95205  -0.06708
C          C       0.63646   0.30024   0.98977  -0.07219
C          C       0.66594   0.33192   0.01128  -0.18779
C          C       0.58909   0.26340   0.93053   0.59003
C          C       0.54952   0.15564   0.42486   0.59607
C          C       0.56780   0.12866   0.44641  -0.06205
C          C       0.53722   0.11242   0.46802  -0.07525
C          C       0.55493   0.08792   0.48848  -0.21348
C          C       0.60353   0.07879   0.48742   0.24243
C          C       0.63432   0.09457   0.46553  -0.18455
C          C       0.61621   0.11942   0.44553  -0.06826
C          C       0.66206   0.03404   0.50653   0.46032
C          C       0.66859   0.01116   0.53486  -0.02229
C          C       0.64828   0.02305   0.57201  -0.16286
C          C       0.65608  -0.00029   0.59661  -0.02926
C          C       0.68371   0.96404   0.58360  -0.09499
C          C       0.70590   0.95294   0.54717  -0.02350
C          C       0.69820   0.97662   0.52302  -0.12940
C          C       0.63468   0.01086   0.63647   0.45846
C          C       0.61385   0.07288   0.69373   0.24049
C          C       0.62369   0.11509   0.71068  -0.21052
C          C       0.60630   0.13699   0.74738  -0.07529
C          C       0.57891   0.11711   0.76795  -0.06589
C          C       0.56939   0.07499   0.75091  -0.06735
C          C       0.58642   0.05271   0.71412  -0.18724
C          C       0.55905   0.14023   0.80698   0.59869
C          C       0.73593   0.91469   0.53464   0.46363
C          C       0.80404   0.88521   0.48951   0.24743
C          C       0.84358   0.89741   0.47257  -0.20824
C          C       0.87573   0.86835   0.45111  -0.07612
C          C       0.86843   0.82641   0.44525  -0.06635
C          C       0.82884   0.81439   0.46205  -0.07240
C          C       0.79700   0.84340   0.48463  -0.18690
C          C       0.90321   0.79582   0.42178   0.59722
C          C       0.06623   0.77414   0.45763   0.59720
C          C       0.08686   0.79661   0.49647  -0.07053
C          C       0.08640   0.83977   0.51032  -0.07098
C          C       0.10390   0.86193   0.54694  -0.19043
C          C       0.12237   0.84059   0.57063   0.24682
C          C       0.12322   0.79726   0.55689  -0.21024
C          C       0.10567   0.77550   0.52019  -0.07547
C          C       0.14631   0.90247   0.62729   0.46622
C          C       0.16512   0.91289   0.66794  -0.02962
C          C       0.19592   0.94642   0.68085  -0.09673
C          C       0.21474   0.95813   0.71850  -0.02229
C          C       0.20262   0.93623   0.74333  -0.12901
C          C       0.17166   0.90258   0.73072  -0.02754
C          C       0.15296   0.89100   0.69299  -0.16373
C          C       0.25158   0.99136   0.72942   0.47069
C          C       0.28519   0.04455   0.78771   0.25146
C          C       0.33293   0.03767   0.77687  -0.18025
C          C       0.36719   0.06369   0.79933  -0.08174
C          C       0.35472   0.09750   0.83189  -0.06985
C          C       0.30689   0.10477   0.84210  -0.07940
C          C       0.27240   0.07813   0.82038  -0.19984
C          C       0.39276   0.12491   0.85441   0.60026
C          C       0.16343   0.87918   0.75832   0.46355
C          C       0.10527   0.83275   0.77467   0.24585
C          C       0.13672   0.81504   0.79453  -0.18757
C          C       0.11911   0.78996   0.81442  -0.07010
C          C       0.07051   0.78216   0.81522  -0.06961
C          C       0.03935   0.79975   0.79513  -0.07515
C          C       0.05653   0.82469   0.77494  -0.21236
C          C       0.05236   0.75607   0.83756   0.59845
C          C       0.46215   0.29551   0.32401   0.59182
C          C       0.44103   0.32230   0.30347  -0.06516
C          C       0.43591   0.36481   0.32215  -0.06928
C          C       0.41512   0.38982   0.30338  -0.18972
C          C       0.39856   0.37194   0.26506   0.24521
C          C       0.40378   0.32933   0.24610  -0.21134
C          C       0.42491   0.30486   0.26502  -0.07315
C          C       0.36561   0.43573   0.25464   0.46225
C          C       0.34172   0.44833   0.22342  -0.02500
C          C       0.31267   0.48325   0.23548  -0.13015
C          C       0.28850   0.49648   0.20820  -0.02322
C          C       0.29424   0.47520   0.16838  -0.09176
C          C       0.32385   0.44084   0.15589  -0.02484
C          C       0.34736   0.42746   0.18353  -0.16497
C          C       0.25648   0.53341   0.21939   0.46660
C          C       0.19925   0.57011   0.27261   0.24587
C          C       0.18745   0.60283   0.25931  -0.19204
C          C       0.15307   0.63085   0.27911  -0.07652
C          C       0.13063   0.62743   0.31230  -0.07149
C          C       0.14299   0.59490   0.32558  -0.06348
C          C       0.17670   0.56639   0.30571  -0.20295
C          C       0.09326   0.65724   0.33224   0.59796
C          C       0.32701   0.41728   0.11311   0.46521
C          C       0.38386   0.36727   0.06810   0.24800
C          C       0.43087   0.35333   0.06642  -0.21238
C          C       0.44581   0.31985   0.03550  -0.07457
C          C       0.41436   0.29999   0.00525  -0.06915
C          C       0.36795   0.31472   0.00653  -0.07244
C          C       0.35228   0.34809   0.03769  -0.18838
C          C       0.43131   0.26391   0.97262   0.59752
C          C       0.57161   0.16291   0.29403   0.59833
C          C       0.59310   0.12952   0.26097  -0.06817
C          C       0.56609   0.11159   0.22720  -0.07394
C          C       0.58502   0.08059   0.19595  -0.21012
C          C       0.63176   0.06709   0.19741   0.24783
C          C       0.65900   0.08440   0.23117  -0.18089
C          C       0.63930   0.11528   0.26263  -0.06662
C          C       0.69306   0.02096   0.15346   0.47492
C          C       0.69824   0.99678   0.11102  -0.02197
C          C       0.67439   0.00800   0.08226  -0.15693
C          C       0.68049   0.98548   0.04278  -0.02518
C          C       0.71072   0.95138   0.03220  -0.12572
C          C       0.73602   0.94073   0.06058  -0.02878
C          C       0.72944   0.96347   0.09996  -0.08534
C          C       0.65477   0.99530   0.01081   0.46504
C          C       0.61724   0.05638   0.99868   0.25082
C          C       0.61338   0.09940   0.01520  -0.20983
C          C       0.58711   0.12148   0.99677  -0.07040
C          C       0.56447   0.10118   0.96125  -0.06647
C          C       0.56888   0.05837   0.94472  -0.06977
C          C       0.59491   0.03570   0.96307  -0.18468
C          C       0.53765   0.12584   0.94164   0.59537
C          C       0.77005   0.90524   0.05125   0.46830
C          C       0.81850   0.86126   0.99465   0.24899
C          C       0.83328   0.85828   0.95686  -0.20736
C          C       0.86278   0.82647   0.93583  -0.07456
C          C       0.87821   0.79704   0.95218  -0.06623
C          C       0.86346   0.80033   0.98991  -0.07187
C          C       0.83389   0.83200   0.01130  -0.18780
C          C       0.91087   0.76339   0.93065   0.59080
C          C       0.95050   0.65570   0.42480   0.59651
C          C       0.93223   0.62875   0.44633  -0.06257
C          C       0.96288   0.61251   0.46790  -0.07688
C          C       0.94523   0.58799   0.48836  -0.21241
C          C       0.89662   0.57888   0.48730   0.24203
C          C       0.86578   0.59468   0.46545  -0.18161
C          C       0.88382   0.61954   0.44546  -0.06841
C          C       0.83800   0.53418   0.50637   0.46091
C          C       0.83151   0.51132   0.53470  -0.02356
C          C       0.85189   0.52323   0.57182  -0.16019
C          C       0.84417   0.49984   0.59638  -0.03046
C          C       0.81651   0.46422   0.58346  -0.09454
C          C       0.79420   0.45319   0.54712  -0.02405
C          C       0.80187   0.47680   0.52294  -0.12911
C          C       0.86541   0.51088   0.63625   0.46036
C          C       0.88604   0.57290   0.69356   0.24016
C          C       0.87619   0.61512   0.71054  -0.20980
C          C       0.89359   0.63702   0.74726  -0.07727
C          C       0.92099   0.61709   0.76784  -0.06442
C          C       0.93050   0.57498   0.75074  -0.06875
C          C       0.91347   0.55273   0.71395  -0.18705
C          C       0.94088   0.64016   0.80689   0.59761
C          C       0.76400   0.41513   0.53513   0.46253
C          C       0.69600   0.38513   0.48987   0.24518
C          C       0.65651   0.39738   0.47290  -0.20698
C          C       0.62433   0.36839   0.45141  -0.07679
C          C       0.63155   0.32643   0.44553  -0.06684
C          C       0.67100   0.31437   0.46251  -0.07326
C          C       0.70284   0.34334   0.48516  -0.18376
C          C       0.59679   0.29586   0.42193   0.59826
C          C       0.93377   0.22586   0.54237   0.59751
C          C       0.91314   0.20339   0.50353  -0.07030
C          C       0.91361   0.16023   0.48968  -0.07089
C          C       0.89610   0.13807   0.45306  -0.19017
C          C       0.87763   0.15941   0.42938   0.24677
C          C       0.87678   0.20274   0.44311  -0.21028
C          C       0.89434   0.22450   0.47981  -0.07564
C          C       0.85370   0.09753   0.37271   0.46572
C          C       0.83488   0.08711   0.33206  -0.02928
C          C       0.80409   0.05358   0.31915  -0.09669
C          C       0.78526   0.04187   0.28151  -0.02251
C          C       0.79739   0.06377   0.25667  -0.12885
C          C       0.82834   0.09742   0.26928  -0.02745
C          C       0.84704   0.10900   0.30701  -0.16359
C          C       0.74842   0.00864   0.27058   0.47075
C          C       0.71481   0.95545   0.21229   0.25142
C          C       0.66707   0.96233   0.22313  -0.18020
C          C       0.63281   0.93631   0.20067  -0.08181
C          C       0.64528   0.90250   0.16811  -0.06985
C          C       0.69311   0.89523   0.15790  -0.07942
C          C       0.72761   0.92187   0.17962  -0.19957
C          C       0.60724   0.87509   0.14559   0.60028
C          C       0.83657   0.12082   0.24168   0.46430
C          C       0.89473   0.16725   0.22533   0.24619
C          C       0.86328   0.18496   0.20548  -0.18773
C          C       0.88089   0.21004   0.18558  -0.07040
C          C       0.92949   0.21784   0.18478  -0.06937
C          C       0.96065   0.20025   0.20488  -0.07526
C          C       0.94348   0.17531   0.22506  -0.21190
C          C       0.94764   0.24393   0.16244   0.59842
C          C       0.53786   0.70449   0.67599   0.59216
C          C       0.55897   0.67770   0.69653  -0.06517
C          C       0.56409   0.63519   0.67785  -0.06926
C          C       0.58488   0.61018   0.69662  -0.18961
C          C       0.60144   0.62806   0.73494   0.24514
C          C       0.59622   0.67067   0.75390  -0.21115
C          C       0.57510   0.69514   0.73498  -0.07306
C          C       0.63439   0.56427   0.74536   0.46238
C          C       0.65828   0.55167   0.77659  -0.02512
C          C       0.68733   0.51675   0.76452  -0.13016
C          C       0.71151   0.50352   0.79180  -0.02328
C          C       0.70576   0.52480   0.83162  -0.09395
C          C       0.67615   0.55916   0.84411  -0.02531
C          C       0.65265   0.57253   0.81648  -0.16472
C          C       0.74352   0.46659   0.78062   0.46616
C          C       0.80076   0.42989   0.72739   0.24593
C          C       0.81256   0.39717   0.74069  -0.19234
C          C       0.84694   0.36915   0.72089  -0.07608
C          C       0.86937   0.37257   0.68770  -0.07170
C          C       0.85701   0.40510   0.67442  -0.06358
C          C       0.82330   0.43361   0.69429  -0.20306
C          C       0.90675   0.34276   0.66777   0.59804
C          C       0.67300   0.58271   0.88690   0.46500
C          C       0.61614   0.63273   0.93190   0.24812
C          C       0.56914   0.64667   0.93358  -0.21262
C          C       0.55420   0.68015   0.96450  -0.07454
C          C       0.58564   0.70001   0.99475  -0.06914
C          C       0.63206   0.68528   0.99347  -0.07225
C          C       0.64773   0.65191   0.96232  -0.18851
C          C       0.56870   0.73609   0.02738   0.59757
C          C       0.42839   0.83709   0.70598   0.59823
C          C       0.40690   0.87048   0.73904  -0.06802
C          C       0.43391   0.88841   0.77280  -0.07391
C          C       0.41498   0.91941   0.80405  -0.20978
C          C       0.36824   0.93291   0.80260   0.24749
C          C       0.34101   0.91560   0.76883  -0.18076
C          C       0.36070   0.88472   0.73737  -0.06692
C          C       0.30694   0.97903   0.84654   0.47543
C          C       0.30176   0.00322   0.88899  -0.02234
C          C       0.32561   0.99200   0.91774  -0.15682
C          C       0.31951   0.01452   0.95722  -0.02506
C          C       0.28928   0.04862   0.96780  -0.12556
C          C       0.26399   0.05927   0.93942  -0.02892
C          C       0.27057   0.03652   0.90004  -0.08530
C          C       0.34523   0.00469   0.98919   0.46486
C          C       0.38277   0.94362   0.00132   0.25072
C          C       0.38662   0.90060   0.98481  -0.20976
C          C       0.41289   0.87851   0.00323  -0.07046
C          C       0.43553   0.89882   0.03875  -0.06611
C          C       0.43113   0.94163   0.05529  -0.06981
C          C       0.40510   0.96430   0.03693  -0.18471
C          C       0.46235   0.87416   0.05836   0.59499
C          C       0.22995   0.09476   0.94875   0.46844
C          C       0.18150   0.13874   0.00535   0.24884
C          C       0.16673   0.14172   0.04315  -0.20723
C          C       0.13722   0.17353   0.06417  -0.07460
C          C       0.12179   0.20296   0.04782  -0.06610
C          C       0.13654   0.19967   0.01009  -0.07206
C          C       0.16611   0.16800   0.98871  -0.18778
C          C       0.08913   0.23661   0.06936   0.59070
C          C       0.04951   0.34430   0.57520   0.59615
C          C       0.06777   0.37125   0.55368  -0.06225
C          C       0.03713   0.38749   0.53210  -0.07700
C          C       0.05478   0.41201   0.51165  -0.21272
C          C       0.10339   0.42112   0.51270   0.24161
C          C       0.13423   0.40532   0.53455  -0.18132
C          C       0.11618   0.38046   0.55454  -0.06866
C          C       0.16200   0.46582   0.49363   0.46047
C          C       0.16849   0.48868   0.46531  -0.02369
C          C       0.14811   0.47677   0.42818  -0.15859
C          C       0.15583   0.50016   0.40362  -0.03057
C          C       0.18350   0.53577   0.41654  -0.09738
C          C       0.20580   0.54681   0.45288  -0.02422
C          C       0.19813   0.52320   0.47706  -0.12915
C          C       0.13459   0.48912   0.36376   0.46026
C          C       0.11397   0.42710   0.30644   0.24032
C          C       0.12381   0.38487   0.28947  -0.20957
C          C       0.10641   0.36298   0.25274  -0.07724
C          C       0.07901   0.38291   0.23217  -0.06458
C          C       0.06950   0.42502   0.24926  -0.06863
C          C       0.08654   0.44727   0.28606  -0.18752
C          C       0.05913   0.35984   0.19311   0.59783
C          C       0.23601   0.58487   0.46488   0.46265
C          C       0.30400   0.61486   0.51013   0.24523
C          C       0.34349   0.60261   0.52711  -0.20724
C          C       0.37568   0.63161   0.54859  -0.07627
C          C       0.36846   0.67357   0.55447  -0.06691
C          C       0.32901   0.68562   0.53750  -0.07320
C          C       0.29716   0.65666   0.51484  -0.18400
C          C       0.40321   0.70414   0.57807   0.59799
C          C       0.56627   0.72578   0.54234   0.59790
C          C       0.58694   0.70325   0.50352  -0.06964
C          C       0.58642   0.66009   0.48972  -0.07106
C          C       0.60391   0.63786   0.45311  -0.19005
C          C       0.62241   0.65915   0.42938   0.24660
C          C       0.62333   0.70247   0.44309  -0.21014
C          C       0.60580   0.72429   0.47978  -0.07550
C          C       0.64622   0.59724   0.37277   0.46716
C          C       0.66487   0.58659   0.33208  -0.03100
C          C       0.69523   0.55275   0.31903  -0.09391
C          C       0.71401   0.54099   0.28136  -0.02447
C          C       0.70243   0.56316   0.25666  -0.12849
C          C       0.67192   0.59709   0.26946  -0.02828
C          C       0.65307   0.60865   0.30711  -0.16332
C          C       0.75045   0.50747   0.27033   0.47185
C          C       0.78529   0.45541   0.21180   0.25072
C          C       0.83290   0.46240   0.22296  -0.17856
C          C       0.86751   0.43668   0.20061  -0.08350
C          C       0.85544   0.40298   0.16782  -0.06767
C          C       0.80773   0.39566   0.15724  -0.07635
C          C       0.77294   0.42202   0.17884  -0.19876
C          C       0.89352   0.37541   0.14548   0.59818
C          C       0.66475   0.62104   0.24226   0.46329
C          C       0.60670   0.66749   0.22547   0.24566
C          C       0.63835   0.68525   0.20582  -0.18478
C          C       0.62097   0.71040   0.18589  -0.07306
C          C       0.57239   0.71825   0.18490  -0.07055
C          C       0.54105   0.70075   0.20494  -0.07563
C          C       0.55797   0.67573   0.22515  -0.21177
C          C       0.55434   0.74421   0.16236   0.59933
C          C       0.96211   0.20447   0.67604   0.59268
C          C       0.94097   0.17772   0.69661  -0.06376
C          C       0.93583   0.13521   0.67794  -0.07203
C          C       0.91510   0.11022   0.69675  -0.18737
C          C       0.89860   0.12809   0.73507   0.24605
C          C       0.90379   0.17070   0.75401  -0.21119
C          C       0.92486   0.19517   0.73507  -0.07445
C          C       0.86559   0.06430   0.74542   0.46089
C          C       0.84155   0.05180   0.77663  -0.02379
C          C       0.81246   0.01692   0.76465  -0.13121
C          C       0.78815   0.00387   0.79198  -0.02037
C          C       0.79366   0.02537   0.83178  -0.09232
C          C       0.82338   0.05967   0.84419  -0.02443
C          C       0.84710   0.07278   0.81650  -0.16565
C          C       0.75634   0.96679   0.78078   0.46545
C          C       0.69914   0.92995   0.72758   0.24595
C          C       0.68742   0.89723   0.74090  -0.19148
C          C       0.65313   0.86913   0.72109  -0.07674
C          C       0.63077   0.87244   0.68781  -0.07126
C          C       0.64309   0.90495   0.67450  -0.06784
C          C       0.67667   0.93355   0.69440  -0.20196
C          C       0.59333   0.84270   0.66784   0.59784
C          C       0.82669   0.08350   0.88690   0.46466
C          C       0.88384   0.13290   0.93190   0.24752
C          C       0.93088   0.14669   0.93358  -0.21211
C          C       0.94598   0.18007   0.96452  -0.07477
C          C       0.91461   0.20000   0.99480  -0.06878
C          C       0.86815   0.18543   0.99353  -0.06993
C          C       0.85233   0.15218   0.96234  -0.18894
C          C       0.93148   0.23615   0.02738   0.59636
C          C       0.07157   0.33705   0.70601   0.59873
C          C       0.09303   0.37043   0.73907  -0.06757
C          C       0.06594   0.38853   0.77275  -0.07249
C          C       0.08487   0.41953   0.80400  -0.21013
C          C       0.13169   0.43286   0.80263   0.24672
C          C       0.15902   0.41535   0.76896  -0.17978
C          C       0.13932   0.38449   0.73749  -0.06875
C          C       0.19319   0.47854   0.84655   0.47705
C          C       0.19842   0.50311   0.88892  -0.02247
C          C       0.17438   0.49220   0.91776  -0.15754
C          C       0.18062   0.51476   0.95721  -0.02329
C          C       0.21086   0.54883   0.96766  -0.12343
C          C       0.23628   0.55924   0.93921  -0.02851
C          C       0.22984   0.53626   0.89986  -0.08633
C          C       0.15520   0.50481   0.98923   0.46487
C          C       0.11816   0.44365   0.00142   0.25077
C          C       0.11402   0.40067   0.98467  -0.20964
C          C       0.08788   0.37851   0.00310  -0.06980
C          C       0.06570   0.39870   0.03883  -0.06913
C          C       0.07031   0.44148   0.05556  -0.06786
C          C       0.09613   0.46425   0.03720  -0.18581
C          C       0.03883   0.37407   0.05843   0.59565
C          C       0.27029   0.59474   0.94854   0.46822
C          C       0.31869   0.63872   0.00524   0.25004
C          C       0.33338   0.64164   0.04305  -0.20750
C          C       0.36280   0.67346   0.06420  -0.07415
C          C       0.37824   0.70296   0.04795  -0.06693
C          C       0.36354   0.69976   0.01023  -0.07242
C          C       0.33406   0.66808   0.98873  -0.18778
C          C       0.41091   0.73660   0.06947   0.58991
C          C       0.45048   0.84435   0.57514   0.59595
C          C       0.43220   0.87134   0.55360  -0.06195
C          C       0.46278   0.88758   0.53199  -0.07494
C          C       0.44507   0.91207   0.51152  -0.21423
C          C       0.39647   0.92121   0.51259   0.24229
C          C       0.36569   0.90543   0.53447  -0.18495
C          C       0.38379   0.88058   0.55448  -0.06804
C          C       0.33794   0.96596   0.49347   0.46103
C          C       0.33142   0.98884   0.46514  -0.02271
C          C       0.35172   0.97695   0.42800  -0.16292
C          C       0.34393   0.00028   0.40339  -0.02965
C          C       0.31629   0.03596   0.41640  -0.09487
C          C       0.29410   0.04706   0.45283  -0.02347
C          C       0.30180   0.02338   0.47698  -0.12958
C          C       0.36532   0.98914   0.36353   0.45870
C          C       0.38615   0.92712   0.30627   0.24035
C          C       0.37631   0.88491   0.28933  -0.21046
C          C       0.39370   0.86301   0.25262  -0.07538
C          C       0.42109   0.88289   0.23205  -0.06584
C          C       0.43061   0.92501   0.24909  -0.06740
C          C       0.41359   0.94729   0.28588  -0.18732
C          C       0.44095   0.85977   0.19302   0.59863
C          C       0.26407   0.08531   0.46536   0.46391
C          C       0.19596   0.11479   0.51049   0.24736
C          C       0.15642   0.10258   0.52743  -0.20813
C          C       0.12427   0.13165   0.54889  -0.07610
C          C       0.13157   0.17359   0.55476  -0.06645
C          C       0.17117   0.18561   0.53795  -0.07239
C          C       0.20300   0.15659   0.51537  -0.18701
C          C       0.09679   0.20418   0.57822   0.59730
N          N       0.36007   0.36095   0.60828  -0.37213
N          N       0.25048   0.51727   0.76822  -0.38110
N          N       0.37790   0.35802   0.75366  -0.37607
N          N       0.12344   0.89428   0.24360  -0.37567
N          N       0.26735   0.03968   0.25394  -0.36438
N          N       0.12922   0.89906   0.10194  -0.37221
N          N       0.85170   0.53707   0.16338  -0.36593
N          N       0.85561   0.53642   0.01982  -0.37411
N          N       0.71167   0.39390   0.01407  -0.37175
N          N       0.61932   0.05449   0.50947  -0.37342
N          N       0.63182   0.05272   0.65613  -0.37603
N          N       0.77225   0.91630   0.50972  -0.37050
N          N       0.13990   0.86069   0.60829  -0.37147
N          N       0.24968   0.01706   0.76758  -0.37740
N          N       0.12092   0.85796   0.75355  -0.38506
N          N       0.37646   0.39428   0.24372  -0.37509
N          N       0.23287   0.53983   0.25413  -0.36383
N          N       0.37084   0.39925   0.10195  -0.37217
N          N       0.64837   0.03711   0.16337  -0.36522
N          N       0.64347   0.03645   0.01992  -0.36726
N          N       0.78803   0.89382   0.01384  -0.37089
N          N       0.88077   0.55458   0.50933  -0.37326
N          N       0.86817   0.55274   0.65594  -0.37032
N          N       0.72799   0.41621   0.50976  -0.37621
N          N       0.86010   0.13931   0.39171  -0.37297
N          N       0.75033   0.98294   0.23242  -0.37731
N          N       0.87909   0.14204   0.24645  -0.38072
N          N       0.62354   0.60572   0.75628  -0.37546
N          N       0.76714   0.46017   0.74587  -0.36379
N          N       0.62916   0.60075   0.89805  -0.37200
N          N       0.35163   0.96289   0.83664  -0.36531
N          N       0.35653   0.96355   0.98008  -0.36726
N          N       0.21197   0.10618   0.98616  -0.37084
N          N       0.11924   0.44542   0.49067  -0.37765
N          N       0.13184   0.44726   0.34407  -0.36982
N          N       0.27201   0.58379   0.49024  -0.37616
N          N       0.63993   0.63905   0.39172  -0.37194
N          N       0.74952   0.48272   0.23179  -0.38114
N          N       0.62211   0.64198   0.24635  -0.37853
N          N       0.87656   0.10572   0.75640  -0.37578
N          N       0.73265   0.96032   0.74606  -0.36528
N          N       0.87078   0.10094   0.89806  -0.37223
N          N       0.14831   0.46293   0.83662  -0.36625
N          N       0.14439   0.46358   0.98018  -0.37421
N          N       0.28833   0.60610   0.98593  -0.37203
N          N       0.38068   0.94551   0.49053  -0.37833
N          N       0.36818   0.94728   0.34387  -0.37578
N          N       0.22775   0.08370   0.49028  -0.37065
O          O       0.43342   0.23481   0.44647  -0.55046
O          O       0.45034   0.29656   0.43872  -0.55532
O          O       0.06473   0.60931   0.85029  -0.55437
O          O       0.11805   0.66110   0.87579  -0.55162
O          O       0.49061   0.25188   0.83883  -0.55588
O          O       0.41470   0.23984   0.85400  -0.55127
O          O       0.36200   0.42965   0.61273  -0.44594
O          O       0.22116   0.49639   0.70547  -0.45361
O          O       0.30459   0.37838   0.78157  -0.43982
O          O       0.03100   0.75779   0.30373  -0.54824
O          O       0.02850   0.81221   0.36019  -0.54163
O          O       0.42152   0.18170   0.31462  -0.55994
O          O       0.42154   0.15630   0.36506  -0.54242
O          O       0.09500   0.74989   0.94262  -0.54471
O          O       0.02816   0.74968   0.97787  -0.55585
O          O       0.12630   0.96077   0.28703  -0.44964
O          O       0.24780   0.05472   0.19827  -0.45203
O          O       0.20719   0.91227   0.09090  -0.43993
O          O       0.96906   0.67564   0.28726  -0.55392
O          O       0.90499   0.67610   0.32582  -0.54866
O          O       0.97626   0.60754   0.90700  -0.54680
O          O       0.96689   0.66402   0.96112  -0.54600
O          O       0.57621   0.23855   0.94813  -0.55611
O          O       0.57600   0.26165   0.89630  -0.54451
O          O       0.77323   0.52734   0.17624  -0.46065
O          O       0.85457   0.46855   0.97961  -0.44788
O          O       0.71910   0.38873   0.07567  -0.45030
O          O       0.50465   0.16027   0.42411  -0.55073
O          O       0.58054   0.17202   0.40900  -0.55000
O          O       0.56647   0.17911   0.82023  -0.55171
O          O       0.53606   0.11903   0.82390  -0.54981
O          O       0.94315   0.81042   0.41621  -0.55376
O          O       0.89056   0.75798   0.40911  -0.54754
O          O       0.69307   0.03370   0.48269  -0.44469
O          O       0.62149   0.98430   0.65003  -0.43969
O          O       0.72821   0.88523   0.54580  -0.44327
O          O       0.50517   0.22450   0.37499  -1.00914
O          O       0.00942   0.69347   0.89079  -1.00804
O          O       0.06656   0.73473   0.44641  -0.54925
O          O       0.04965   0.79652   0.43870  -0.55497
O          O       0.43441   0.10941   0.85038  -0.55517
O          O       0.38124   0.16147   0.87565  -0.55266
O          O       0.00743   0.75201   0.83858  -0.55238
O          O       0.08327   0.74008   0.85396  -0.55345
O          O       0.13806   0.92949   0.61290  -0.44552
O          O       0.28098   0.99422   0.70549  -0.45234
O          O       0.19307   0.87905   0.78308  -0.43982
O          O       0.46902   0.25776   0.30377  -0.54755
O          O       0.47152   0.31218   0.36025  -0.54085
O          O       0.07853   0.68173   0.31474  -0.56023
O          O       0.07836   0.65625   0.36512  -0.54183
O          O       0.40490   0.25001   0.94258  -0.54506
O          O       0.47171   0.24976   0.97787  -0.55596
O          O       0.37374   0.46079   0.28708  -0.45076
O          O       0.25213   0.55481   0.19834  -0.45215
O          O       0.29318   0.41394   0.09097  -0.44100
O          O       0.53098   0.17563   0.28728  -0.55376
O          O       0.59504   0.17607   0.32586  -0.54840
O          O       0.52164   0.10744   0.90735  -0.54716
O          O       0.53297   0.16409   0.96102  -0.54568
O          O       0.92376   0.73850   0.94820  -0.55801
O          O       0.92392   0.76164   0.89641  -0.54406
O          O       0.72650   0.02599   0.17629  -0.45988
O          O       0.64525   0.96858   0.97964  -0.44833
O          O       0.78082   0.88880   0.07550  -0.45024
O          O       0.99536   0.66030   0.42409  -0.55008
O          O       0.91948   0.67208   0.40892  -0.55060
O          O       0.93342   0.67905   0.82012  -0.55183
O          O       0.96392   0.61905   0.82386  -0.54963
O          O       0.55689   0.31047   0.41626  -0.55443
O          O       0.60945   0.25801   0.40921  -0.54761
O          O       0.80696   0.53394   0.48255  -0.44473
O          O       0.87845   0.48431   0.64985  -0.44108
O          O       0.77145   0.38631   0.54727  -0.44346
O          O       0.99482   0.72454   0.37493  -1.00924
O          O       0.49036   0.19357   0.89074  -1.00883
O          O       0.93344   0.26526   0.55359  -0.54976
O          O       0.95035   0.20348   0.56130  -0.55478
O          O       0.56560   0.89059   0.14962  -0.55537
O          O       0.61876   0.83853   0.12435  -0.55254
O          O       0.99257   0.24799   0.16142  -0.55203
O          O       0.91674   0.25992   0.14605  -0.55379
O          O       0.86194   0.07051   0.38710  -0.44483
O          O       0.71902   0.00578   0.29451  -0.45226
O          O       0.80693   0.12095   0.21692  -0.44050
O          O       0.53098   0.74223   0.69623  -0.54769
O          O       0.52848   0.68782   0.63975  -0.54116
O          O       0.92148   0.31827   0.68526  -0.56002
O          O       0.92165   0.34375   0.63488  -0.54214
O          O       0.59511   0.74999   0.05742  -0.54475
O          O       0.52830   0.75024   0.02213  -0.55632
O          O       0.62626   0.53921   0.71292  -0.45099
O          O       0.74787   0.44519   0.80167  -0.45169
O          O       0.70682   0.58606   0.90903  -0.44053
O          O       0.46902   0.82437   0.71272  -0.55338
O          O       0.40496   0.82392   0.67414  -0.54880
O          O       0.47836   0.89256   0.09265  -0.54695
O          O       0.46703   0.83591   0.03898  -0.54562
O          O       0.07624   0.26150   0.05181  -0.55834
O          O       0.07609   0.23836   0.10359  -0.54353
O          O       0.27351   0.97401   0.82372  -0.46042
O          O       0.35475   0.03142   0.02036  -0.44810
O          O       0.21918   0.11120   0.92450  -0.45075
O          O       0.00464   0.33969   0.57591  -0.55040
O          O       0.08052   0.32792   0.59108  -0.55010
O          O       0.06658   0.32095   0.17988  -0.55166
O          O       0.03608   0.38095   0.17614  -0.54994
O          O       0.44312   0.68953   0.58374  -0.55398
O          O       0.39056   0.74199   0.59079  -0.54785
O          O       0.19304   0.46606   0.51745  -0.44421
O          O       0.12156   0.51569   0.35015  -0.44154
O          O       0.22856   0.61369   0.45273  -0.44410
O          O       0.00518   0.27546   0.62507  -1.00934
O          O       0.50964   0.80643   0.10926  -1.00879
O          O       0.56659   0.76519   0.55353  -0.55054
O          O       0.54966   0.70344   0.56128  -0.55503
O          O       0.93527   0.39069   0.14972  -0.55419
O          O       0.88195   0.33889   0.12421  -0.55185
O          O       0.50939   0.74812   0.16117  -0.55611
O          O       0.58531   0.76016   0.14601  -0.55131
O          O       0.63800   0.57034   0.38728  -0.44562
O          O       0.77885   0.50361   0.29454  -0.45300
O          O       0.69541   0.62162   0.21843  -0.43986
O          O       0.96900   0.24221   0.69628  -0.54820
O          O       0.97150   0.18779   0.63981  -0.54193
O          O       0.57849   0.81830   0.68538  -0.55966
O          O       0.57846   0.84369   0.63495  -0.54276
O          O       0.90500   0.25010   0.05738  -0.54469
O          O       0.97184   0.25032   0.02213  -0.55577
O          O       0.87371   0.03923   0.71298  -0.44965
O          O       0.75220   0.94527   0.80173  -0.45153
O          O       0.79281   0.08773   0.90910  -0.44017
O          O       0.03094   0.32436   0.71274  -0.55394
O          O       0.09502   0.32390   0.67419  -0.54869
O          O       0.02374   0.39246   0.09301  -0.54673
O          O       0.03311   0.33597   0.03888  -0.54603
O          O       0.42379   0.76145   0.05187  -0.55645
O          O       0.42400   0.73835   0.10370  -0.54411
O          O       0.22677   0.47266   0.82377  -0.46063
O          O       0.14543   0.53145   0.02039  -0.44796
O          O       0.28090   0.61127   0.92433  -0.45078
O          O       0.49535   0.83972   0.57589  -0.55060
O          O       0.41946   0.82798   0.59100  -0.55017
O          O       0.43354   0.82088   0.17977  -0.55165
O          O       0.46394   0.88097   0.17610  -0.54988
O          O       0.05686   0.18958   0.58380  -0.55372
O          O       0.10944   0.24202   0.59089  -0.54763
O          O       0.30694   0.96630   0.51731  -0.44499
O          O       0.37852   0.01570   0.34997  -0.43997
O          O       0.27179   0.11477   0.45420  -0.44380
O          O       0.49483   0.77550   0.62501  -1.00926
O          O       0.99058   0.30653   0.10921  -1.00791

