data_crystal

_audit_creation_method 'AiiDA-DDEC plugin'

_cell_length_a        15.09647
_cell_length_b        28.50516
_cell_length_c        57.69486

_cell_angle_alpha     89.98046
_cell_angle_beta     90.10398
_cell_angle_gamma     90.01149

_symmetry_space_group_name_Hall 'P 1'
_symmetry_space_group_name_H-M  'P 1'

loop_
_symmetry_equiv_pos_as_xyz
 'x,y,z'

loop_
_atom_site_label
_atom_site_type_symbol
_atom_site_fract_x
_atom_site_fract_y
_atom_site_fract_z
_atom_site_charge
Cu         Cu      0.88077   0.48394   0.40783   0.26294
Cu         Cu      0.61887   0.01427   0.40832   0.26066
Cu         Cu      0.88109   0.51593   0.90785   0.26220
Cu         Cu      0.61856   0.98486   0.90803   0.26219
Cu         Cu      0.25225   0.75012   0.16016   0.27889
Cu         Cu      0.25183   0.24989   0.66004   0.28156
Cu         Cu      0.11937   0.48378   0.09211   0.26381
Cu         Cu      0.38167   0.01481   0.09180   0.26168
Cu         Cu      0.11909   0.51630   0.59223   0.26330
Cu         Cu      0.38136   0.98482   0.59192   0.26200
Cu         Cu      0.74803   0.75027   0.33987   0.28036
Cu         Cu      0.74816   0.24998   0.83973   0.28023
H          H       0.50949   0.50894   0.34306   0.27761
H          H       0.29357   0.61131   0.25178   0.27933
H          H       0.25618   0.55894   0.35600   0.28126
H          H       0.83842   0.55320   0.37418   0.08085
H          H       0.70786   0.58386   0.35319   0.13562
H          H       0.58526   0.44825   0.36295   0.12406
H          H       0.72173   0.42278   0.38299   0.08922
H          H       0.21642   0.65640   0.17734   0.08878
H          H       0.22431   0.61644   0.21547   0.13118
H          H       0.41590   0.72069   0.23664   0.15589
H          H       0.40030   0.75611   0.19746   0.09198
H          H       0.05162   0.54411   0.41456   0.09095
H          H       0.18670   0.56004   0.39176   0.13104
H          H       0.05521   0.49895   0.33234   0.14787
H          H       0.92565   0.48455   0.35791   0.08675
H          H       0.51332   0.63268   0.29710   0.11541
H          H       0.23669   0.59852   0.28629   0.11286
H          H       0.38090   0.53375   0.34197   0.09084
H          H       0.25534   0.63869   0.05904   0.28232
H          H       0.50339   0.52306   0.97021   0.26925
H          H       0.25853   0.56647   0.96514   0.26716
H          H       0.35719   0.67018   0.14801   0.09333
H          H       0.40101   0.63156   0.11109   0.14594
H          H       0.15852   0.68510   0.08106   0.13048
H          H       0.12584   0.72236   0.11884   0.09063
H          H       0.69393   0.47259   0.91352   0.08231
H          H       0.56279   0.48731   0.93750   0.13016
H          H       0.71853   0.58657   0.97702   0.14820
H          H       0.84334   0.56894   0.95061   0.08315
H          H       0.04913   0.58023   0.90733   0.09027
H          H       0.18503   0.58632   0.93115   0.12427
H          H       0.05432   0.50182   0.98318   0.14691
H          H       0.92452   0.49844   0.95724   0.09488
H          H       0.52067   0.60160   0.03636   0.12154
H          H       0.38167   0.54326   0.97755   0.08922
H          H       0.23611   0.58191   0.03841   0.10836
H          H       0.99268   0.99052   0.34279   0.27615
H          H       0.21071   0.88828   0.25194   0.27710
H          H       0.24652   0.94188   0.35598   0.27326
H          H       0.66392   0.94616   0.37377   0.07900
H          H       0.79544   0.91509   0.35338   0.13492
H          H       0.91737   0.05096   0.36293   0.12361
H          H       0.77991   0.07663   0.38235   0.08843
H          H       0.28627   0.84436   0.17747   0.08543
H          H       0.27740   0.88410   0.21561   0.13081
H          H       0.08421   0.78017   0.23603   0.15265
H          H       0.10117   0.74485   0.19693   0.08868
H          H       0.45045   0.95568   0.41475   0.09137
H          H       0.31581   0.93988   0.39159   0.13161
H          H       0.44757   0.00229   0.33266   0.14716
H          H       0.57678   0.01653   0.35855   0.08970
H          H       0.98948   0.86671   0.29726   0.11591
H          H       0.26562   0.90150   0.28633   0.11043
H          H       0.12158   0.96574   0.34214   0.09126
H          H       0.24567   0.85952   0.05881   0.27566
H          H       0.99559   0.97674   0.97054   0.26742
H          H       0.24051   0.93288   0.96499   0.26899
H          H       0.14717   0.82960   0.14806   0.09337
H          H       0.10186   0.86760   0.11113   0.14594
H          H       0.34373   0.81429   0.08099   0.12957
H          H       0.37795   0.77756   0.11884   0.09105
H          H       0.80570   0.02704   0.91346   0.08254
H          H       0.93634   0.01281   0.93782   0.12911
H          H       0.78048   0.91355   0.97722   0.14863
H          H       0.65585   0.93080   0.95044   0.08460
H          H       0.45015   0.91982   0.90747   0.09035
H          H       0.31346   0.91416   0.93092   0.12482
H          H       0.44339   0.99882   0.98316   0.15054
H          H       0.57430   0.00133   0.95771   0.09229
H          H       0.98036   0.89718   0.03646   0.12134
H          H       0.11694   0.95669   0.97766   0.09106
H          H       0.26472   0.91775   0.03823   0.10615
H          H       0.50944   0.49091   0.84302   0.27680
H          H       0.29105   0.38791   0.75200   0.27778
H          H       0.25640   0.44099   0.85608   0.27552
H          H       0.83811   0.44704   0.87444   0.07994
H          H       0.70771   0.41605   0.85355   0.13899
H          H       0.58474   0.55166   0.86297   0.12419
H          H       0.72111   0.57737   0.88296   0.08894
H          H       0.21488   0.34394   0.67741   0.08908
H          H       0.22298   0.38355   0.71564   0.13138
H          H       0.41399   0.27889   0.73660   0.15220
H          H       0.39818   0.24380   0.69741   0.08779
H          H       0.05102   0.45582   0.91454   0.09152
H          H       0.18642   0.43991   0.89187   0.13132
H          H       0.05536   0.50084   0.83227   0.14759
H          H       0.92552   0.51518   0.85774   0.08714
H          H       0.51351   0.36708   0.79704   0.11638
H          H       0.23664   0.40111   0.78639   0.11103
H          H       0.38119   0.46577   0.84200   0.09120
H          H       0.25333   0.36090   0.55890   0.28241
H          H       0.50285   0.47723   0.47036   0.26904
H          H       0.25694   0.43321   0.46543   0.26899
H          H       0.35500   0.32990   0.64790   0.09265
H          H       0.39922   0.36805   0.61098   0.14584
H          H       0.15691   0.31459   0.58094   0.12873
H          H       0.12382   0.27756   0.61876   0.09098
H          H       0.69425   0.52769   0.41361   0.08309
H          H       0.56263   0.51319   0.43751   0.13038
H          H       0.71662   0.41259   0.47676   0.14834
H          H       0.84231   0.43024   0.45052   0.08372
H          H       0.04852   0.41947   0.40748   0.09106
H          H       0.18464   0.41411   0.43130   0.12537
H          H       0.05347   0.49904   0.48304   0.15048
H          H       0.92311   0.50151   0.45718   0.09348
H          H       0.51864   0.39689   0.53578   0.12240
H          H       0.37957   0.45743   0.47751   0.08929
H          H       0.23476   0.41938   0.53850   0.10632
H          H       0.99037   0.00876   0.84297   0.27381
H          H       0.21023   0.11123   0.75180   0.27653
H          H       0.24361   0.05843   0.85613   0.27575
H          H       0.66224   0.05362   0.87413   0.08038
H          H       0.79334   0.08432   0.85342   0.13511
H          H       0.91478   0.94828   0.86305   0.12391
H          H       0.77785   0.92300   0.88283   0.08913
H          H       0.28874   0.15580   0.67761   0.08502
H          H       0.27981   0.11618   0.71583   0.13081
H          H       0.08396   0.21906   0.73579   0.15271
H          H       0.10122   0.25431   0.69664   0.08863
H          H       0.44969   0.04473   0.91457   0.09172
H          H       0.31420   0.06043   0.89177   0.13196
H          H       0.44444   0.99843   0.83249   0.14756
H          H       0.57441   0.98433   0.85808   0.08557
H          H       0.98573   0.13134   0.79646   0.11561
H          H       0.26263   0.09740   0.78613   0.11291
H          H       0.11854   0.03437   0.84225   0.09085
H          H       0.24523   0.14042   0.55873   0.28284
H          H       0.99550   0.02319   0.47056   0.26774
H          H       0.24054   0.06602   0.46537   0.26792
H          H       0.14764   0.17024   0.64806   0.09315
H          H       0.10215   0.13234   0.61114   0.14629
H          H       0.34355   0.18595   0.58083   0.13047
H          H       0.37800   0.22265   0.61868   0.09092
H          H       0.80638   0.97285   0.41335   0.08402
H          H       0.93657   0.98696   0.43789   0.13014
H          H       0.78046   0.08660   0.47694   0.14874
H          H       0.65634   0.06946   0.44998   0.08516
H          H       0.45059   0.08036   0.40806   0.09072
H          H       0.31370   0.08539   0.43145   0.12418
H          H       0.44399   0.00074   0.48362   0.14620
H          H       0.57533   0.99876   0.45820   0.09334
H          H       0.97948   0.10287   0.53639   0.12068
H          H       0.11717   0.04306   0.47782   0.09090
H          H       0.26384   0.08214   0.53846   0.10536
H          H       0.49056   0.50859   0.15704   0.27610
H          H       0.71010   0.61101   0.24820   0.27814
H          H       0.74343   0.55797   0.14419   0.27582
H          H       0.16250   0.55280   0.12528   0.08059
H          H       0.29283   0.58364   0.14637   0.13630
H          H       0.41558   0.44802   0.13698   0.12366
H          H       0.27942   0.42242   0.11679   0.08951
H          H       0.78718   0.65656   0.32263   0.08582
H          H       0.77936   0.61650   0.28454   0.13056
H          H       0.58400   0.71930   0.26374   0.15581
H          H       0.59996   0.75488   0.30280   0.08981
H          H       0.95046   0.54491   0.08579   0.08969
H          H       0.81483   0.56013   0.10836   0.13162
H          H       0.94498   0.49814   0.16777   0.14717
H          H       0.07566   0.48445   0.14231   0.08651
H          H       0.48682   0.63232   0.20307   0.11625
H          H       0.76295   0.59657   0.21393   0.11194
H          H       0.61788   0.53401   0.15776   0.08993
H          H       0.74676   0.63931   0.44105   0.27594
H          H       0.49709   0.52268   0.52952   0.26929
H          H       0.74267   0.56696   0.53487   0.26899
H          H       0.64538   0.66982   0.35200   0.09299
H          H       0.60115   0.63166   0.38889   0.14568
H          H       0.84294   0.68562   0.41904   0.12897
H          H       0.87614   0.72254   0.38119   0.09061
H          H       0.30552   0.47240   0.58637   0.08293
H          H       0.43725   0.48671   0.56250   0.13027
H          H       0.28369   0.58744   0.52319   0.14803
H          H       0.15788   0.56988   0.54942   0.08359
H          H       0.95172   0.58081   0.59261   0.09101
H          H       0.81554   0.58627   0.56882   0.12600
H          H       0.94626   0.50101   0.51713   0.15041
H          H       0.07654   0.49859   0.54293   0.09367
H          H       0.48165   0.60318   0.46416   0.12184
H          H       0.62015   0.54234   0.52243   0.09083
H          H       0.76555   0.58076   0.46155   0.10599
H          H       0.00910   0.99106   0.15695   0.27018
H          H       0.79103   0.88879   0.24798   0.27756
H          H       0.75566   0.94170   0.14406   0.27480
H          H       0.33759   0.94643   0.12592   0.07931
H          H       0.20669   0.91588   0.14673   0.13814
H          H       0.08507   0.05179   0.13701   0.12352
H          H       0.22179   0.07702   0.11713   0.08876
H          H       0.71352   0.84515   0.32240   0.08533
H          H       0.72332   0.88481   0.28422   0.13093
H          H       0.91580   0.78030   0.26407   0.15607
H          H       0.89793   0.74508   0.30315   0.09195
H          H       0.55079   0.95509   0.08544   0.09131
H          H       0.68596   0.93953   0.10842   0.13165
H          H       0.55537   0.00247   0.16737   0.14740
H          H       0.42558   0.01631   0.14167   0.08651
H          H       0.01261   0.86685   0.20291   0.11619
H          H       0.73663   0.90215   0.21367   0.11053
H          H       0.88103   0.96631   0.15801   0.08949
H          H       0.75474   0.85943   0.44122   0.28243
H          H       0.00464   0.97686   0.52937   0.26813
H          H       0.75921   0.93382   0.53468   0.26756
H          H       0.85373   0.82898   0.35207   0.09395
H          H       0.89896   0.86695   0.38898   0.14576
H          H       0.65629   0.81441   0.41905   0.12958
H          H       0.62193   0.77770   0.38118   0.09147
H          H       0.19406   0.02693   0.58663   0.08403
H          H       0.06358   0.01289   0.56215   0.12991
H          H       0.21945   0.91343   0.52292   0.14836
H          H       0.34384   0.93052   0.54981   0.08433
H          H       0.54964   0.91948   0.59209   0.09105
H          H       0.68617   0.91422   0.56857   0.12484
H          H       0.55577  -0.00071   0.51657   0.14615
H          H       0.42490   0.00150   0.54214   0.09307
H          H       0.02032   0.89725   0.46362   0.12098
H          H       0.88275   0.95693   0.52222   0.09126
H          H       0.73597   0.91788   0.46154   0.10562
H          H       0.49015   0.49117   0.65694   0.27136
H          H       0.70898   0.38736   0.74794   0.27653
H          H       0.74322   0.44131   0.64416   0.27445
H          H       0.16120   0.44672   0.62574   0.08143
H          H       0.29196   0.41608   0.64662   0.13573
H          H       0.41410   0.55183   0.63695   0.12327
H          H       0.27747   0.57726   0.61701   0.08922
H          H       0.78365   0.34381   0.82255   0.08499
H          H       0.77612   0.38301   0.78419   0.12980
H          H       0.58377   0.27872   0.76350   0.15382
H          H       0.59892   0.24402   0.80281   0.08924
H          H       0.94775   0.45589   0.58558   0.09010
H          H       0.81267   0.44015   0.60844   0.13170
H          H       0.94458   0.50108   0.66781   0.14821
H          H       0.07415   0.51545   0.64220   0.08568
H          H       0.48577   0.36703   0.70276   0.11747
H          H       0.76270   0.40049   0.71368   0.11351
H          H       0.61916   0.46612   0.65815   0.09112
H          H       0.74613   0.36067   0.94102   0.27532
H          H       0.49723   0.47621   0.02979   0.26854
H          H       0.74292   0.43303   0.03445   0.26863
H          H       0.64392   0.32971   0.85201   0.09278
H          H       0.59990   0.36776   0.88901   0.14555
H          H       0.84305   0.31466   0.91885   0.12924
H          H       0.87604   0.27786   0.88097   0.08998
H          H       0.30675   0.52674   0.08649   0.08296
H          H       0.43790   0.51191   0.06257   0.13014
H          H       0.28167   0.41346   0.02269   0.14738
H          H       0.15669   0.43113   0.04910   0.08341
H          H       0.95084   0.42019   0.09259   0.09129
H          H       0.81505   0.41442   0.06877   0.12495
H          H       0.94629   0.49898   0.01684   0.14682
H          H       0.07606   0.50201   0.04282   0.09369
H          H       0.48055   0.39713   0.96389   0.12276
H          H       0.61916   0.45744   0.02225   0.08938
H          H       0.76449   0.41885   0.96139   0.10617
H          H       0.00906   0.00900   0.65700   0.27110
H          H       0.79229   0.11114   0.74806   0.28588
H          H       0.75510   0.05879   0.64384   0.28058
H          H       0.33796   0.05310   0.62612   0.07901
H          H       0.20724   0.08397   0.64688   0.13483
H          H       0.08427   0.94847   0.63699   0.12431
H          H       0.22106   0.92284   0.61724   0.08889
H          H       0.71527   0.15545   0.82253   0.08525
H          H       0.72385   0.11553   0.78442   0.13212
H          H       0.91298   0.22101   0.76331   0.15105
H          H       0.89674   0.25635   0.80245   0.08862
H          H       0.55019   0.04397   0.58521   0.09116
H          H       0.68534   0.06005   0.60805   0.13154
H          H       0.55516   0.99835   0.66740   0.14760
H          H       0.42541   0.98367   0.64178   0.08623
H          H       0.01343   0.13264   0.70300   0.11564
H          H       0.73679   0.09838   0.71356   0.11354
H          H       0.88071   0.03400   0.65793   0.09197
H          H       0.75479   0.14053   0.94114   0.28300
H          H       0.00418   0.02337   0.02949   0.26789
H          H       0.75933   0.06645   0.03457   0.26724
H          H       0.85442   0.17116   0.85197   0.09331
H          H       0.89909   0.13307   0.88898   0.14607
H          H       0.65576   0.18542   0.91871   0.13031
H          H       0.62226   0.22224   0.88084   0.09110
H          H       0.19433   0.97260   0.08645   0.08325
H          H       0.06359   0.98710   0.06215   0.13009
H          H       0.21945   0.08653   0.02288   0.14853
H          H       0.34411   0.06906   0.04958   0.08449
H          H       0.54998   0.08014   0.09210   0.08747
H          H       0.68632   0.08577   0.06851   0.12478
H          H       0.55590   0.00112   0.01639   0.14700
H          H       0.42516   0.99848   0.04201   0.09359
H          H       0.02032   0.10274   0.96351   0.12008
H          H       0.88266   0.04315   0.02214   0.09088
H          H       0.73586   0.08231   0.96152   0.10606
C          C       0.78153   0.53057   0.37108   0.06949
C          C       0.70840   0.54818   0.35956  -0.23484
C          C       0.63435   0.51884   0.35598   0.27081
C          C       0.64009   0.47278   0.36492  -0.26712
C          C       0.71688   0.45824   0.37609   0.07679
C          C       0.54650   0.57439   0.33129   0.42918
C          C       0.25939   0.66974   0.19100   0.09829
C          C       0.26384   0.64773   0.21236  -0.24608
C          C       0.32039   0.66589   0.22958   0.27623
C          C       0.37012   0.70608   0.22411  -0.22122
C          C       0.36158   0.72537   0.20215   0.09052
C          C       0.37866   0.65400   0.26984   0.47448
C          C       0.05401   0.53476   0.39629   0.07849
C          C       0.12988   0.54337   0.38352  -0.25996
C          C       0.13239   0.53124   0.35983   0.26751
C          C       0.05701   0.50916   0.35044  -0.23484
C          C       0.98457   0.50171   0.36467   0.07308
C          C       0.21600   0.54394   0.32278   0.45666
C          C       0.45933   0.58012   0.32012  -0.05001
C          C       0.45461   0.61263   0.30163  -0.11400
C          C       0.37648   0.61860   0.28902  -0.03814
C          C       0.29971   0.59346   0.29513  -0.17805
C          C       0.30142   0.56425   0.31494  -0.03813
C          C       0.38086   0.55712   0.32701  -0.17444
C          C       0.31521   0.67309   0.13271   0.07923
C          C       0.33974   0.65124   0.11228  -0.23323
C          C       0.28347   0.65488   0.09285   0.26697
C          C       0.20455   0.68089   0.09547  -0.26077
C          C       0.18572   0.70159   0.11663   0.07842
C          C       0.38061   0.61286   0.06432   0.45132
C          C       0.69754   0.49787   0.92761   0.08162
C          C       0.62355   0.50656   0.94106  -0.25114
C          C       0.62925   0.53810   0.95980   0.27526
C          C       0.71057   0.56153   0.96304  -0.23203
C          C       0.78036   0.55106   0.94841   0.08160
C          C       0.55034   0.56998   0.99451   0.44128
C          C       0.05229   0.56340   0.92424   0.07223
C          C       0.12856   0.56643   0.93753  -0.26662
C          C       0.13143   0.54497   0.95957   0.26956
C          C       0.05608   0.51951   0.96656  -0.22290
C          C       0.98306   0.51802   0.95195   0.07446
C          C       0.21261   0.54874   0.99738   0.44652
C          C       0.37832   0.59570   0.04008  -0.04840
C          C       0.45907   0.59090   0.02817  -0.15074
C          C       0.46115   0.57241   0.00553  -0.04551
C          C       0.38130   0.55843   0.99488  -0.18179
C          C       0.29992   0.56249   0.00688  -0.04432
C          C       0.29950   0.58126   0.02945  -0.15320
C          C       0.72099   0.96871   0.37075   0.07390
C          C       0.79460   0.95088   0.35958  -0.23594
C          C       0.86853   0.98027   0.35604   0.27055
C          C       0.86256   0.02642   0.36481  -0.26774
C          C       0.78523   0.04107   0.37563   0.07898
C          C       0.95715   0.92424   0.33187   0.43217
C          C       0.24300   0.83087   0.19098   0.09946
C          C       0.23807   0.85279   0.21234  -0.24628
C          C       0.18120   0.83457   0.22942   0.27626
C          C       0.13094   0.79463   0.22373  -0.21823
C          C       0.14014   0.77542   0.20177   0.09254
C          C       0.12234   0.84678   0.26953   0.46890
C          C       0.44806   0.96544   0.39652   0.07784
C          C       0.37255   0.95692   0.38355  -0.26076
C          C       0.37012   0.96946   0.35989   0.26838
C          C       0.44549   0.99183   0.35072  -0.23288
C          C       0.51771  -0.00075   0.36510   0.07020
C          C       0.28707   0.95605   0.32274   0.45601
C          C       0.04396   0.91891   0.32043  -0.04901
C          C       0.04820   0.88677   0.30184  -0.11148
C          C       0.12599   0.88125   0.28904  -0.03921
C          C       0.20275   0.90635   0.29521  -0.17208
C          C       0.20145   0.93563   0.31497  -0.03624
C          C       0.12213   0.94241   0.32717  -0.17768
C          C       0.18871   0.82662   0.13274   0.07836
C          C       0.16332   0.84809   0.11225  -0.23370
C          C       0.21876   0.84414   0.09274   0.26869
C          C       0.29806   0.81848   0.09542  -0.25950
C          C       0.31782   0.79813   0.11663   0.07734
C          C       0.12057   0.88541   0.06401   0.45438
C          C       0.80197   0.00187   0.92760   0.08095
C          C       0.87567   0.99340   0.94126  -0.25143
C          C       0.86974   0.96185   0.96001   0.27621
C          C       0.78839   0.93844   0.96316  -0.23186
C          C       0.71885   0.94870   0.94835   0.08089
C          C       0.94916   0.92943   0.99465   0.44177
C          C       0.44662   0.93673   0.92436   0.07260
C          C       0.36992   0.93399   0.93743  -0.26601
C          C       0.36677   0.95558   0.95943   0.26842
C          C       0.44208   0.98103   0.96655  -0.22753
C          C       0.51564   0.98203   0.95218   0.07737
C          C       0.28547   0.95215   0.99712   0.44926
C          C       0.12276   0.90326   0.03991  -0.05129
C          C       0.04150   0.90817   0.02818  -0.14638
C          C       0.03839   0.92700   0.00562  -0.04875
C          C       0.11767   0.94123   0.99492  -0.17958
C          C       0.19932   0.93739   0.00679  -0.04682
C          C       0.20113   0.91823   0.02929  -0.14969
C          C       0.78119   0.46959   0.87125   0.07122
C          C       0.70810   0.45183   0.85977  -0.23837
C          C       0.63405   0.48110   0.85605   0.27223
C          C       0.63969   0.52721   0.86495  -0.26763
C          C       0.71646   0.54187   0.87611   0.07630
C          C       0.54665   0.42540   0.83129   0.42884
C          C       0.25770   0.33033   0.69104   0.09934
C          C       0.26221   0.35219   0.71245  -0.24841
C          C       0.31869   0.33386   0.72965   0.27608
C          C       0.36812   0.29363   0.72414  -0.21690
C          C       0.35960   0.27453   0.70216   0.09363
C          C       0.37940   0.34635   0.76969   0.47261
C          C       0.05385   0.46519   0.89626   0.07843
C          C       0.12982   0.45658   0.88352  -0.25985
C          C       0.13249   0.46863   0.85981   0.26767
C          C       0.05709   0.49068   0.85038  -0.23513
C          C       0.98451   0.49815   0.86459   0.07388
C          C       0.21609   0.45578   0.82280   0.45708
C          C       0.45941   0.41942   0.82016  -0.05061
C          C       0.45475   0.38704   0.80165  -0.11081
C          C       0.37655   0.38118   0.78903  -0.03923
C          C       0.29965   0.40609   0.79523  -0.17654
C          C       0.30139   0.43527   0.81500  -0.03587
C          C       0.38092   0.44243   0.82704  -0.17720
C          C       0.31310   0.32686   0.63260   0.07888
C          C       0.33784   0.34850   0.61211  -0.23530
C          C       0.28188   0.34477   0.59264   0.26858
C          C       0.20288   0.31884   0.59535  -0.25891
C          C       0.18379   0.29827   0.61654   0.07812
C          C       0.37964   0.38592   0.56383   0.45095
C          C       0.69732   0.50215   0.42762   0.08092
C          C       0.62303   0.49352   0.44100  -0.25023
C          C       0.62814   0.46152   0.45958   0.27414
C          C       0.70925   0.43785   0.46284  -0.23293
C          C       0.77943   0.44832   0.44832   0.08362
C          C       0.54786   0.42814   0.49380   0.44271
C          C       0.05158   0.43653   0.42433   0.07308
C          C       0.12787   0.43384   0.43762  -0.26767
C          C       0.13042   0.45548   0.45960   0.27082
C          C       0.05507   0.48106   0.46649  -0.22709
C          C       0.98194   0.48212   0.45190   0.07533
C          C       0.21154   0.45245   0.49741   0.44920
C          C       0.37665   0.40394   0.53977  -0.05151
C          C       0.45726   0.40837   0.52774  -0.14842
C          C       0.45928   0.42716   0.50518  -0.04573
C          C       0.37957   0.44191   0.49474  -0.18477
C          C       0.29847   0.43826   0.50689  -0.04846
C          C       0.29793   0.41936   0.52940  -0.14591
C          C       0.71907   0.03097   0.87104   0.07035
C          C       0.79244   0.04855   0.85969  -0.23386
C          C       0.86606   0.01899   0.85608   0.27143
C          C       0.86012   0.97291   0.86497  -0.26682
C          C       0.78308   0.95850   0.87600   0.07609
C          C       0.95326   0.07436   0.83129   0.43350
C          C       0.24469   0.16905   0.69103   0.10050
C          C       0.23970   0.14717   0.71243  -0.24761
C          C       0.18156   0.16495   0.72935   0.27700
C          C       0.13108   0.20472   0.72358  -0.21918
C          C       0.14040   0.22391   0.70161   0.09422
C          C       0.11985   0.15185   0.76922   0.46906
C          C       0.44664   0.03497   0.89636   0.07768
C          C       0.37064   0.04346   0.88356  -0.26072
C          C       0.36769   0.03109   0.85989   0.26858
C          C       0.44285   0.00878   0.85058  -0.23550
C          C       0.51550   0.00143   0.86483   0.07431
C          C       0.28391   0.04392   0.82286   0.45549
C          C       0.04029   0.08001   0.82007  -0.05171
C          C       0.04457   0.11158   0.80125  -0.11086
C          C       0.12268   0.11707   0.78859  -0.03942
C          C       0.19973   0.09254   0.79501  -0.17493
C          C       0.19828   0.06396   0.81500  -0.03788
C          C       0.11884   0.05723   0.82712  -0.17454
C          C       0.18904   0.17333   0.63271   0.08002
C          C       0.16357   0.15190   0.61222  -0.23485
C          C       0.21880   0.15592   0.59267   0.26947
C          C       0.29803   0.18168   0.59530  -0.26075
C          C       0.31788   0.20203   0.61651   0.07715
C          C       0.11995   0.11459   0.56415   0.45611
C          C       0.80250   0.99808   0.42746   0.07900
C          C       0.87597   0.00650   0.44121  -0.25059
C          C       0.86993   0.03813   0.45991   0.27675
C          C       0.78864   0.06166   0.46293  -0.23248
C          C       0.71932   0.05149   0.44804   0.08006
C          C       0.94895   0.07057   0.49462   0.44111
C          C       0.44718   0.06329   0.42492   0.07161
C          C       0.37041   0.06578   0.43798  -0.26553
C          C       0.36741   0.04418   0.45997   0.26782
C          C       0.44281   0.01879   0.46708  -0.22202
C          C       0.51646   0.01798   0.45271   0.07485
C          C       0.28647   0.04867   0.49768   0.44824
C          C       0.12179   0.09673   0.54006  -0.05280
C          C       0.04077   0.09182   0.52822  -0.14587
C          C       0.03816   0.07281   0.50569  -0.04920
C          C       0.11774   0.05852   0.49508  -0.18021
C          C       0.19929   0.06269   0.50706  -0.04827
C          C       0.20024   0.08176   0.52954  -0.14866
C          C       0.21941   0.53026   0.12852   0.07132
C          C       0.29238   0.54790   0.14009  -0.23603
C          C       0.36624   0.51855   0.14387   0.27147
C          C       0.36071   0.47249   0.13492  -0.26660
C          C       0.28410   0.45790   0.12367   0.07645
C          C       0.45328   0.57418   0.16876   0.43071
C          C       0.74354   0.66965   0.30904   0.10021
C          C       0.73913   0.64753   0.28770  -0.24569
C          C       0.68171   0.66520   0.27054   0.27668
C          C       0.63081   0.70500   0.27609  -0.22219
C          C       0.63945   0.72445   0.29801   0.09331
C          C       0.62191   0.65259   0.23046   0.47017
C          C       0.94752   0.53497   0.10398   0.08199
C          C       0.87126   0.54325   0.11666  -0.26145
C          C       0.86810   0.53066   0.14029   0.26787
C          C       0.94355   0.50854   0.14969  -0.23371
C          C       0.01647   0.50142   0.13554   0.07385
C          C       0.78390   0.54263   0.17726   0.45651
C          C       0.54055   0.58006   0.17988  -0.05208
C          C       0.54552   0.61231   0.19844  -0.11052
C          C       0.62381   0.61770   0.21110  -0.03882
C          C       0.70016   0.59225   0.20490  -0.17751
C          C       0.69844   0.56328   0.18505  -0.03713
C          C       0.61881   0.55683   0.17291  -0.17590
C          C       0.68719   0.67294   0.36732   0.07825
C          C       0.66242   0.65132   0.38781  -0.23439
C          C       0.71822   0.65523   0.40730   0.26900
C          C       0.79711   0.68126   0.40460  -0.25946
C          C       0.81625   0.70176   0.38340   0.07834
C          C       0.62056   0.61410   0.43615   0.45002
C          C       0.30265   0.49791   0.57235   0.08160
C          C       0.37699   0.50646   0.55896  -0.25160
C          C       0.37193   0.53843   0.54035   0.27552
C          C       0.29090   0.56218   0.53712  -0.23373
C          C       0.22069   0.55176   0.55164   0.08358
C          C       0.45208   0.57173   0.50606   0.44129
C          C       0.94850   0.56370   0.57578   0.07229
C          C       0.87215   0.56641   0.56252  -0.26728
C          C       0.86921   0.54460   0.54058   0.26882
C          C       0.94454   0.51904   0.53367  -0.22642
C          C       0.01778   0.51800   0.54821   0.07544
C          C       0.78824   0.54764   0.50281   0.44873
C          C       0.62368   0.59609   0.46023  -0.05085
C          C       0.54299   0.59165   0.47221  -0.14771
C          C       0.54074   0.57274   0.49474  -0.04517
C          C       0.62033   0.55798   0.50522  -0.18451
C          C       0.70158   0.56181   0.49317  -0.04772
C          C       0.70237   0.58071   0.47065  -0.14652
C          C       0.28081   0.96914   0.12900   0.07209
C          C       0.20750   0.95160   0.14041  -0.23777
C          C       0.13370   0.98106   0.14401   0.27130
C          C       0.13967   0.02713   0.13508  -0.26578
C          C       0.21666   0.04154   0.12400   0.07590
C          C       0.04615   0.92544   0.16870   0.43081
C          C       0.75696   0.83152   0.30895   0.10064
C          C       0.76240   0.85344   0.28758  -0.24940
C          C       0.81941   0.83507   0.27057   0.27811
C          C       0.86912   0.79497   0.27631  -0.22127
C          C       0.85942   0.77579   0.29826   0.09029
C          C       0.87927   0.84710   0.23050   0.47057
C          C       0.55355   0.96509   0.10363   0.07905
C          C       0.62943   0.95670   0.11650  -0.26008
C          C       0.63225   0.96947   0.14013   0.26756
C          C       0.55706   0.99188   0.14933  -0.23403
C          C       0.48452  -0.00092   0.13503   0.07512
C          C       0.71626   0.95707   0.17725   0.45897
C          C       0.95901   0.91953   0.17979  -0.05125
C          C       0.95417   0.88713   0.19830  -0.10912
C          C       0.87618   0.88161   0.21098  -0.04014
C          C       0.79954   0.90685   0.20480  -0.17564
C          C       0.80137   0.93606   0.18503  -0.03758
C          C       0.88074   0.94287   0.17294  -0.17470
C          C       0.81198   0.82614   0.36737   0.07771
C          C       0.83735   0.84757   0.38786  -0.23348
C          C       0.78165   0.84388   0.40733   0.26837
C          C       0.70211   0.81841   0.40462  -0.25933
C          C       0.68233   0.79807   0.38342   0.07725
C          C       0.88005   0.88540   0.43593   0.45619
C          C       0.19780   0.00176   0.57249   0.07941
C          C       0.12421   0.99340   0.55877  -0.24921
C          C       0.13020   0.96184   0.54004   0.27547
C          C       0.21144   0.93833   0.53695  -0.23148
C          C       0.28086   0.94846   0.55182   0.08052
C          C       0.05091   0.92925   0.50541   0.44284
C          C       0.55297   0.93657   0.57523   0.07282
C          C       0.62954   0.93397   0.56210  -0.26735
C          C       0.63246   0.95568   0.54013   0.26972
C          C       0.55710   0.98118   0.53310  -0.22403
C          C       0.48366   0.98210   0.54754   0.07641
C          C       0.71332   0.95129   0.50237   0.44683
C          C       0.87794   0.90332   0.45998  -0.05260
C          C       0.95902   0.90826   0.47181  -0.14737
C          C       0.96163   0.92721   0.49433  -0.04872
C          C       0.88208   0.94148   0.50496  -0.18088
C          C       0.80047   0.93735   0.49298  -0.04754
C          C       0.79951   0.91829   0.47049  -0.14744
C          C       0.21810   0.46938   0.62880   0.07002
C          C       0.29133   0.45180   0.64029  -0.23513
C          C       0.36539   0.48113   0.64393   0.27089
C          C       0.35941   0.52722   0.63500  -0.26514
C          C       0.28255   0.54176   0.62385   0.07425
C          C       0.45338   0.42552   0.66863   0.42925
C          C       0.74076   0.33020   0.80894   0.10185
C          C       0.73655   0.35179   0.78749  -0.24675
C          C       0.67988   0.33347   0.77035   0.27619
C          C       0.62980   0.29341   0.77594  -0.21891
C          C       0.63810   0.27454   0.79800   0.09322
C          C       0.61953   0.34636   0.73041   0.47101
C          C       0.94542   0.46531   0.60385   0.07934
C          C       0.86956   0.45680   0.61666  -0.26099
C          C       0.86721   0.46885   0.64035   0.26871
C          C       0.94272   0.49090   0.64971  -0.23525
C          C       0.01513   0.49832   0.63544   0.07527
C          C       0.78382   0.45572   0.67738   0.45859
C          C       0.54046   0.41956   0.67981  -0.05146
C          C       0.54470   0.38700   0.69828  -0.10975
C          C       0.62272   0.38095   0.71096  -0.03907
C          C       0.69980   0.40581   0.70484  -0.17990
C          C       0.69841   0.43518   0.68513  -0.03702
C          C       0.61907   0.44256   0.67304  -0.17608
C          C       0.68601   0.32674   0.86729   0.08020
C          C       0.66136   0.34827   0.88781  -0.23333
C          C       0.71762   0.34453   0.90723   0.26850
C          C       0.79685   0.31883   0.90447  -0.25924
C          C       0.81586   0.29839   0.88325   0.07943
C          C       0.62013   0.38582   0.93604   0.45482
C          C       0.30300   0.50164   0.07232   0.08110
C          C       0.37704   0.49283   0.05890  -0.25170
C          C       0.37122   0.46143   0.04010   0.27743
C          C       0.28964   0.43835   0.03673  -0.23251
C          C       0.21980   0.44887   0.05134   0.08195
C          C       0.45108   0.42895   0.00561   0.44316
C          C       0.94784   0.43706   0.07569   0.07181
C          C       0.87168   0.43416   0.06237  -0.26695
C          C       0.86914   0.45556   0.04031   0.26996
C          C       0.94448   0.48115   0.03343  -0.22412
C          C       0.01740   0.48249   0.04807   0.07604
C          C       0.78809   0.45229   0.00240   0.44714
C          C       0.62288   0.40374   0.96010  -0.05079
C          C       0.54203   0.40841   0.97196  -0.14834
C          C       0.54000   0.42738   0.99447  -0.04802
C          C       0.61962   0.44191   0.00502  -0.18119
C          C       0.70095   0.43813   0.99299  -0.04528
C          C       0.70145   0.41901   0.97052  -0.14770
C          C       0.28103   0.03048   0.62917   0.07258
C          C       0.20783   0.04827   0.64053  -0.23461
C          C       0.13374   0.01898   0.64407   0.27102
C          C       0.13923   0.97294   0.63513  -0.26719
C          C       0.21616   0.95829   0.62413   0.07753
C          C       0.04624   0.07448   0.66873   0.43308
C          C       0.75783   0.16913   0.80890   0.10244
C          C       0.76262   0.14712   0.78754  -0.24808
C          C       0.81872   0.16560   0.77034   0.27613
C          C       0.86751   0.20613   0.77580  -0.21657
C          C       0.85866   0.22536   0.79776   0.09266
C          C       0.87841   0.15348   0.73017   0.47258
C          C       0.55300   0.03448   0.60347   0.07930
C          C       0.62886   0.04317   0.61630  -0.26292
C          C       0.63170   0.03095   0.64000   0.26990
C          C       0.55659   0.00862   0.64931  -0.23525
C          C       0.48410   0.00101   0.63504   0.07529
C          C       0.71586   0.04406   0.67710   0.45443
C          C       0.95915   0.08035   0.67985  -0.05083
C          C       0.95466   0.11263   0.69840  -0.11323
C          C       0.87648   0.11832   0.71098  -0.03826
C          C       0.79972   0.09347   0.70473  -0.17665
C          C       0.80133   0.06448   0.68488  -0.03653
C          C       0.88075   0.05739   0.67287  -0.17430
C          C       0.81242   0.17384   0.86722   0.07742
C          C       0.83745   0.15237   0.88773  -0.23411
C          C       0.78146   0.15603   0.90716   0.26786
C          C       0.70193   0.18145   0.90437  -0.25909
C          C       0.68253   0.20182   0.88314   0.07817
C          C       0.87992   0.11458   0.93571   0.45482
C          C       0.19804   0.99786   0.07234   0.08068
C          C       0.12429   0.00647   0.05872  -0.25113
C          C       0.13014   0.03811   0.04000   0.27546
C          C       0.21150   0.06152   0.03688  -0.23145
C          C       0.28111   0.05115   0.05166   0.08119
C          C       0.05083   0.07059   0.00533   0.44228
C          C       0.55330   0.06314   0.07523   0.07485
C          C       0.62973   0.06596   0.06206  -0.26646
C          C       0.63256   0.04446   0.04005   0.26939
C          C       0.55724   0.01895   0.03299  -0.22474
C          C       0.48394   0.01778   0.04747   0.07612
C          C       0.71329   0.04887   0.00230   0.44666
C          C       0.87801   0.09669   0.95982  -0.05253
C          C       0.95901   0.09172   0.97169  -0.14680
C          C       0.96157   0.07286   0.99426  -0.04954
C          C       0.88201   0.05865   0.00489  -0.17992
C          C       0.80046   0.06278   0.99290  -0.04813
C          C       0.79954   0.08184   0.97040  -0.14798
N          N       0.78901   0.48599   0.37929  -0.26292
N          N       0.30704   0.70836   0.18551  -0.24091
N          N       0.98009   0.51449   0.38733  -0.24233
N          N       0.55804   0.53342   0.34455  -0.37657
N          N       0.32607   0.64250   0.25079  -0.37028
N          N       0.20794   0.54176   0.34706  -0.38175
N          N       0.23957   0.69834   0.13545  -0.25679
N          N       0.77701   0.51906   0.93099  -0.24706
N          N       0.97846   0.54009   0.93106  -0.25180
N          N       0.30202   0.63438   0.07158  -0.37662
N          N       0.55516   0.54474   0.97373  -0.37520
N          N       0.20726   0.54991   0.97306  -0.37075
N          N       0.71316   0.01340   0.37864  -0.27057
N          N       0.19559   0.79223   0.18534  -0.24198
N          N       0.52194   0.98612   0.38775  -0.23667
N          N       0.94493   0.96571   0.34467  -0.37267
N          N       0.17623   0.85773   0.25070  -0.36638
N          N       0.29469   0.95896   0.34702  -0.37647
N          N       0.26449   0.80147   0.13549  -0.25472
N          N       0.72257   0.98051   0.93083  -0.24383
N          N       0.52059   0.95976   0.93136  -0.25539
N          N       0.19936   0.86410   0.07136  -0.37238
N          N       0.94363   0.95526   0.97406  -0.37481
N          N       0.29079   0.95054   0.97281  -0.37108
N          N       0.78871   0.51423   0.87934  -0.26390
N          N       0.30520   0.29169   0.68552  -0.24270
N          N       0.97991   0.48536   0.88725  -0.24277
N          N       0.55794   0.46641   0.84455  -0.37568
N          N       0.32469   0.35708   0.75090  -0.36821
N          N       0.20817   0.45809   0.84707  -0.37701
N          N       0.23749   0.30160   0.63539  -0.25731
N          N       0.77646   0.48056   0.43099  -0.24718
N          N       0.97750   0.45963   0.43112  -0.25307
N          N       0.30040   0.36524   0.57133  -0.37794
N          N       0.55397   0.45489   0.47352  -0.37378
N          N       0.20618   0.45066   0.47312  -0.37284
N          N       0.71117   0.98632   0.87908  -0.26370
N          N       0.19631   0.20728   0.68526  -0.24391
N          N       0.52042   0.01453   0.88745  -0.24077
N          N       0.94216   0.03340   0.84457  -0.37338
N          N       0.17522   0.14157   0.75057  -0.36736
N          N       0.29198   0.04156   0.84712  -0.37683
N          N       0.26475   0.19859   0.63541  -0.25620
N          N       0.72315   0.01959   0.43057  -0.24002
N          N       0.52129   0.04044   0.43193  -0.25645
N          N       0.19901   0.13595   0.57133  -0.37939
N          N       0.94359   0.04472   0.47404  -0.37426
N          N       0.29131   0.04895   0.47334  -0.37147
N          N       0.21197   0.48561   0.12042  -0.26352
N          N       0.69504   0.70798   0.31455  -0.23991
N          N       0.02133   0.51459   0.11294  -0.24459
N          N       0.44210   0.53313   0.15550  -0.37495
N          N       0.67622   0.64176   0.24930  -0.36892
N          N       0.79209   0.54079   0.15301  -0.37688
N          N       0.76269   0.69829   0.36454  -0.25731
N          N       0.22355   0.51951   0.56897  -0.24779
N          N       0.02242   0.54044   0.56900  -0.25207
N          N       0.69971   0.63483   0.42863  -0.37263
N          N       0.44597   0.54502   0.52636  -0.37503
N          N       0.79327   0.54945   0.52713  -0.37172
N          N       0.28861   0.01374   0.12090  -0.26635
N          N       0.80400   0.79277   0.31464  -0.24295
N          N       0.47978   0.98575   0.11243  -0.24079
N          N       0.05756   0.96652   0.15548  -0.37024
N          N       0.82520   0.85818   0.24928  -0.36908
N          N       0.70778   0.95904   0.15299  -0.37678
N          N       0.73588   0.80126   0.36459  -0.25465
N          N       0.27712   0.98028   0.56932  -0.24174
N          N       0.47893   0.95962   0.56831  -0.25585
N          N       0.80117   0.86393   0.42867  -0.37766
N          N       0.05652   0.95531   0.52590  -0.37411
N          N       0.70841   0.95087   0.52672  -0.37131
N          N       0.21047   0.51399   0.62061  -0.26060
N          N       0.69280   0.29172   0.81456  -0.24125
N          N       0.01948   0.48551   0.61278  -0.24354
N          N       0.44172   0.46660   0.65542  -0.37271
N          N       0.67469   0.35674   0.74909  -0.36738
N          N       0.79165   0.45827   0.65313  -0.37645
N          N       0.76183   0.30167   0.86447  -0.25893
N          N       0.22336   0.48068   0.06884  -0.24682
N          N       0.02188   0.46025   0.06892  -0.25297
N          N       0.69901   0.36480   0.92858  -0.37280
N          N       0.44532   0.45471   0.02618  -0.37416
N          N       0.79370   0.45040   0.02671  -0.37031
N          N       0.28847   0.98586   0.62110  -0.26810
N          N       0.80461   0.20807   0.81439  -0.24389
N          N       0.47931   0.01389   0.61238  -0.23946
N          N       0.05748   0.03354   0.65547  -0.37076
N          N       0.82509   0.14226   0.74911  -0.37518
N          N       0.70710   0.04172   0.65285  -0.38300
N          N       0.73635   0.19870   0.86437  -0.25507
N          N       0.27748   0.01920   0.06912  -0.24305
N          N       0.47930   0.04004   0.06830  -0.25500
N          N       0.80097   0.13607   0.92853  -0.37669
N          N       0.05624   0.04477   0.02594  -0.37377
N          N       0.70845   0.04941   0.02664  -0.36937
O          O       0.60696   0.60362   0.32876  -0.47322
O          O       0.42390   0.68993   0.27088  -0.44721
O          O       0.15617   0.53248   0.30929  -0.46211
O          O       0.44638   0.60858   0.07706  -0.47093
O          O       0.61568   0.58969   0.00318  -0.46157
O          O       0.14751   0.53918   0.00960  -0.47812
O          O       0.89777   0.89425   0.32990  -0.46989
O          O       0.07388   0.81203   0.26999  -0.44616
O          O       0.34743   0.96726   0.30939  -0.46563
O          O       0.05412   0.88897   0.07649  -0.47200
O          O       0.88418   0.90944   0.00324  -0.46234
O          O       0.34991   0.96303   0.00936  -0.47746
O          O       0.60731   0.39629   0.82880  -0.47360
O          O       0.42747   0.31140   0.77040  -0.44722
O          O       0.15646   0.46754   0.80930  -0.46138
O          O       0.44644   0.38883   0.57630  -0.47218
O          O       0.61159   0.40599   0.50182  -0.46076
O          O       0.14703   0.46295   0.50964  -0.47774
O          O       0.89288   0.10365   0.82883  -0.47249
O          O       0.07131   0.18659   0.76976  -0.44684
O          O       0.34372   0.03248   0.80940  -0.46388
O          O       0.05398   0.11099   0.57680  -0.47147
O          O       0.88402   0.09078   0.50311  -0.46122
O          O       0.35154   0.03941   0.51008  -0.47885
O          O       0.39269   0.60334   0.17121  -0.47498
O          O       0.57487   0.68791   0.22975  -0.44849
O          O       0.84349   0.53047   0.19072  -0.46192
O          O       0.55368   0.61116   0.42371  -0.47130
O          O       0.38841   0.59380   0.49794  -0.46057
O          O       0.85292   0.53698   0.49068  -0.47752
O          O       0.10675   0.89627   0.17123  -0.47443
O          O       0.92742   0.81219   0.23010  -0.44827
O          O       0.65713   0.96955   0.19069  -0.46308
O          O       0.94630   0.88906   0.42340  -0.47203
O          O       0.11563   0.90867   0.49702  -0.46157
O          O       0.64821   0.96059   0.49000  -0.47876
O          O       0.39297   0.39626   0.67117  -0.47299
O          O       0.57064   0.31176   0.73001  -0.44761
O          O       0.84368   0.46736   0.69081  -0.46242
O          O       0.55328   0.38907   0.92363  -0.47248
O          O       0.38683   0.40803   0.99713  -0.46027
O          O       0.85248   0.46255   0.99003  -0.47855
O          O       0.10677   0.10365   0.67128  -0.47298
O          O       0.92438   0.18916   0.72907  -0.44594
O          O       0.65642   0.03254   0.69064  -0.46291
O          O       0.94580   0.11101   0.92303  -0.47244
O          O       0.11578   0.09073   0.99682  -0.46146
O          O       0.64823   0.03942   0.98992  -0.47837

