data_crystal

_audit_creation_method 'AiiDA-DDEC plugin'

_cell_length_a        15.67507
_cell_length_b        25.00002
_cell_length_c        25.15947

_cell_angle_alpha     90.00000
_cell_angle_beta     90.23915
_cell_angle_gamma     90.00000

_symmetry_space_group_name_Hall 'P 1'
_symmetry_space_group_name_H-M  'P 1'

loop_
_symmetry_equiv_pos_as_xyz
 'x,y,z'

loop_
_atom_site_label
_atom_site_type_symbol
_atom_site_fract_x
_atom_site_fract_y
_atom_site_fract_z
_atom_site_charge
Cd         Cd      0.06967   0.94950   0.08104   1.08012
Cd         Cd      0.15225   0.00959   0.95682   1.08599
Cd         Cd      0.93033   0.44950   0.41896   1.08011
Cd         Cd      0.84775   0.50959   0.54319   1.08590
Cd         Cd      0.93033   0.05050   0.91896   1.08014
Cd         Cd      0.84775   0.99041   0.04318   1.08598
Cd         Cd      0.06967   0.55050   0.58104   1.08012
Cd         Cd      0.15225   0.49041   0.45681   1.08590
H          H       0.18651   0.89462   0.90881   0.11337
H          H       0.28274   0.74048   0.83300   0.06294
H          H       0.38673   0.71625   0.81887   0.07726
H          H       0.37719   0.65391   0.89609   0.08319
H          H       0.27718   0.68064   0.91366   0.08295
H          H       0.25805   0.59387   0.86354   0.11518
H          H       0.21364   0.64749   0.82674   0.12076
H          H       0.31386   0.62060   0.80850   0.12223
H          H       0.26413   0.80395   0.04556   0.11724
H          H       0.40051   0.70927   0.97040   0.09797
H          H       0.35927   0.72672   0.03391   0.09838
H          H       0.41156   0.82578   0.06544   0.10776
H          H       0.54300   0.87895   0.08133   0.10367
H          H       0.67337   0.86000   0.02900   0.11503
H          H       0.63012   0.66931  -0.00130   0.06165
H          H       0.51920   0.65852   0.00805   0.05412
H          H       0.50843   0.61934   0.91641   0.08485
H          H       0.61774   0.63039   0.90660   0.09317
H          H       0.54298   0.55661   0.99373   0.11592
H          H       0.58999   0.53431   0.93377   0.12257
H          H       0.65319   0.56718   0.98229   0.11438
H          H       0.69047   0.74565   0.93224   0.10096
H          H       0.75533   0.77975   0.97968   0.10284
H          H       0.79905   0.87255   0.96561   0.11463
H          H       0.71791   0.95551   0.82514   0.11172
H          H       0.67281   0.77096   0.78804   0.05320
H          H       0.69556   0.73040   0.84407   0.05159
H          H       0.52357   0.73470   0.78599   0.09125
H          H       0.54618   0.69453   0.84145   0.09496
H          H       0.66252   0.64625   0.78759   0.11141
H          H       0.56083   0.63952   0.75742   0.11794
H          H       0.63553   0.68591   0.73175   0.11603
H          H       0.63114   0.90878   0.75912   0.09188
H          H       0.59653   0.84221   0.76882   0.10224
H          H       0.56696   0.97833   0.82823   0.10580
H          H       0.43020   0.01211   0.86510   0.10358
H          H       0.30431   0.95172   0.86844   0.11414
H          H       0.50286   0.79112   0.71433   0.06667
H          H       0.46098   0.85703   0.70996   0.06601
H          H       0.35470   0.75439   0.72108   0.08937
H          H       0.31204   0.81918   0.71674   0.08619
H          H       0.37195   0.83021   0.62465   0.10714
H          H       0.41843   0.76576   0.62808   0.11494
H          H       0.30549   0.77299   0.62814   0.11885
H          H       0.29776   0.81531   0.80922   0.09466
H          H       0.23256   0.87155   0.82306   0.10650
H          H       0.07199   0.02940   0.17791   0.11497
H          H       0.99776   0.03063   0.42714   0.07147
H          H       0.94235   0.99444   0.37716   0.05912
H          H       0.13624   0.99489   0.39311   0.08959
H          H       0.08227   0.95976   0.34238   0.09224
H          H       0.00921   0.90134   0.40913   0.11325
H          H       0.12073   0.89919   0.42005   0.11862
H          H       0.05510   0.93783   0.46225   0.11362
H          H       0.80992   0.04414   0.22534   0.11871
H          H       0.77469   0.06885   0.31324   0.11223
H          H       0.84420   0.05263   0.36649   0.09541
H          H       0.84285   0.15654   0.25796   0.10240
H          H       0.87283   0.25275   0.27449   0.10118
H          H       0.91537   0.28286   0.36519   0.11475
H          H       0.80022   0.14358   0.49858   0.06070
H          H       0.74481   0.14298   0.43703   0.06008
H          H       0.75062   0.04225   0.43658   0.08942
H          H       0.79889   0.04318   0.49988   0.09295
H          H       0.63815   0.03031   0.50641   0.11706
H          H       0.66968   0.09066   0.53779   0.11787
H          H       0.62229   0.09238   0.47382   0.11325
H          H       0.93400   0.18808   0.48133   0.09856
H          H       0.89174   0.25320   0.47227   0.11130
H          H       0.97979   0.32729   0.46020   0.11658
H          H       0.23911   0.31135   0.40848   0.11532
H          H       0.04450   0.15323   0.51047   0.05914
H          H       0.05702   0.09305   0.47395   0.07460
H          H       0.21418   0.10400   0.47547   0.08840
H          H       0.20470   0.16695   0.50673   0.08966
H          H       0.14852   0.05994   0.55741   0.11317
H          H       0.24141   0.09653   0.57469   0.11916
H          H       0.13938   0.12368   0.58768   0.11765
H          H       0.25417   0.16837   0.41929   0.09601
H          H       0.29962   0.22751   0.39264   0.10857
H          H       0.20197   0.26360   0.30726   0.10764
H          H       0.14880   0.23246   0.21918   0.10238
H          H       0.12068   0.13592   0.20424   0.11360
H          H       0.32170   0.06380   0.31538   0.05972
H          H       0.36026   0.10580   0.36696   0.06248
H          H       0.28361   0.99371   0.38180   0.08417
H          H       0.32087   0.03461   0.43371   0.08289
H          H       0.46979   0.03347   0.39278   0.11426
H          H       0.43432   0.96799   0.40805   0.11767
H          H       0.43144   0.99119   0.34154   0.12440
H          H       0.18342   0.03637   0.23938   0.10981
H          H       0.16479   0.03073   0.30883   0.09854
H          H       0.81348   0.39462   0.59119   0.11329
H          H       0.71726   0.24048   0.66700   0.06288
H          H       0.61326   0.21625   0.68113   0.07728
H          H       0.62281   0.15391   0.60391   0.08326
H          H       0.72282   0.18064   0.58634   0.08293
H          H       0.74195   0.09387   0.63646   0.11529
H          H       0.78636   0.14749   0.67326   0.12074
H          H       0.68614   0.12060   0.69150   0.12229
H          H       0.73587   0.30395   0.45444   0.11729
H          H       0.59948   0.20927   0.52960   0.09803
H          H       0.64073   0.22671   0.46609   0.09835
H          H       0.58843   0.32577   0.43456   0.10772
H          H       0.45700   0.37895   0.41867   0.10355
H          H       0.32663   0.36000   0.47100   0.11499
H          H       0.36988   0.16931   0.50130   0.06170
H          H       0.48080   0.15852   0.49195   0.05411
H          H       0.49157   0.11934   0.58359   0.08481
H          H       0.38226   0.13039   0.59340   0.09317
H          H       0.45702   0.05662   0.50627   0.11591
H          H       0.41001   0.03431   0.56623   0.12256
H          H       0.34681   0.06718   0.51771   0.11439
H          H       0.30952   0.24565   0.56776   0.10103
H          H       0.24467   0.27976   0.52032   0.10290
H          H       0.20094   0.37255   0.53439   0.11469
H          H       0.28208   0.45551   0.67487   0.11165
H          H       0.32719   0.27096   0.71196   0.05316
H          H       0.30443   0.23040   0.65593   0.05161
H          H       0.47643   0.23470   0.71401   0.09118
H          H       0.45382   0.19452   0.65855   0.09495
H          H       0.33748   0.14625   0.71241   0.11147
H          H       0.43917   0.13952   0.74258   0.11798
H          H       0.36447   0.18591   0.76825   0.11600
H          H       0.36886   0.40878   0.74089   0.09187
H          H       0.40347   0.34221   0.73118   0.10225
H          H       0.43304   0.47832   0.67177   0.10578
H          H       0.56980   0.51211   0.63490   0.10358
H          H       0.69569   0.45172   0.63156   0.11405
H          H       0.49714   0.29112   0.78567   0.06680
H          H       0.53902   0.35703   0.79005   0.06590
H          H       0.64530   0.25439   0.77892   0.08951
H          H       0.68796   0.31918   0.78326   0.08610
H          H       0.62805   0.33021   0.87535   0.10709
H          H       0.58157   0.26576   0.87192   0.11514
H          H       0.69450   0.27299   0.87186   0.11886
H          H       0.70224   0.31531   0.69078   0.09468
H          H       0.76744   0.37155   0.67694   0.10638
H          H       0.92801   0.52940   0.32209   0.11493
H          H       0.00224   0.53063   0.07286   0.07154
H          H       0.05765   0.49444   0.12284   0.05912
H          H       0.86376   0.49489   0.10689   0.08967
H          H       0.91773   0.45976   0.15762   0.09227
H          H       0.99079   0.40134   0.09087   0.11324
H          H       0.87927   0.39919   0.07995   0.11875
H          H       0.94490   0.43783   0.03775   0.11360
H          H       0.19008   0.54414   0.27466   0.11867
H          H       0.22531   0.56885   0.18676   0.11225
H          H       0.15580   0.55264   0.13351   0.09534
H          H       0.15715   0.65654   0.24204   0.10238
H          H       0.12717   0.75275   0.22551   0.10121
H          H       0.08463   0.78286   0.13481   0.11478
H          H       0.19978   0.64359   0.00142   0.06073
H          H       0.25519   0.64298   0.06297   0.06011
H          H       0.24938   0.54225   0.06342   0.08936
H          H       0.20112   0.54318   0.00012   0.09287
H          H       0.36185   0.53031   0.99359   0.11699
H          H       0.33032   0.59066   0.96221   0.11795
H          H       0.37771   0.59239   0.02618   0.11335
H          H       0.06600   0.68808   0.01867   0.09854
H          H       0.10826   0.75320   0.02773   0.11138
H          H       0.02021   0.82729   0.03979   0.11658
H          H       0.76088   0.81135   0.09151   0.11540
H          H       0.95550   0.65323   0.98953   0.05915
H          H       0.94298   0.59305   0.02605   0.07443
H          H       0.78582   0.60401   0.02453   0.08837
H          H       0.79530   0.66695   0.99327   0.08969
H          H       0.85148   0.55994   0.94259   0.11314
H          H       0.75859   0.59653   0.92531   0.11916
H          H       0.86061   0.62369   0.91232   0.11768
H          H       0.74582   0.66837   0.08071   0.09593
H          H       0.70038   0.72751   0.10736   0.10861
H          H       0.79803   0.76360   0.19274   0.10773
H          H       0.85119   0.73246   0.28082   0.10240
H          H       0.87932   0.63592   0.29576   0.11348
H          H       0.67830   0.56380   0.18462   0.05969
H          H       0.63974   0.60580   0.13304   0.06257
H          H       0.71639   0.49371   0.11820   0.08417
H          H       0.67913   0.53461   0.06629   0.08294
H          H       0.53021   0.53347   0.10722   0.11432
H          H       0.56568   0.46799   0.09195   0.11780
H          H       0.56856   0.49119   0.15846   0.12445
H          H       0.81658   0.53637   0.26062   0.10976
H          H       0.83521   0.53074   0.19117   0.09850
H          H       0.81348   0.10538   0.09119   0.11329
H          H       0.71726   0.25952   0.16700   0.06289
H          H       0.61326   0.28376   0.18113   0.07728
H          H       0.62281   0.34609   0.10391   0.08328
H          H       0.72282   0.31936   0.08634   0.08292
H          H       0.74195   0.40613   0.13646   0.11527
H          H       0.78636   0.35251   0.17326   0.12071
H          H       0.68614   0.37940   0.19150   0.12228
H          H       0.73587   0.19605   0.95444   0.11726
H          H       0.59948   0.29073   0.02960   0.09803
H          H       0.64073   0.27329   0.96609   0.09842
H          H       0.58844   0.17423   0.93456   0.10772
H          H       0.45700   0.12105   0.91867   0.10358
H          H       0.32663   0.14000   0.97100   0.11496
H          H       0.36988   0.33069   0.00130   0.06171
H          H       0.48080   0.34148   0.99195   0.05412
H          H       0.49157   0.38066   0.08359   0.08483
H          H       0.38226   0.36961   0.09340   0.09317
H          H       0.45702   0.44339   0.00627   0.11593
H          H       0.41001   0.46569   0.06623   0.12263
H          H       0.34680   0.43282   0.01771   0.11440
H          H       0.30953   0.25436   0.06776   0.10103
H          H       0.24467   0.22025   0.02032   0.10288
H          H       0.20095   0.12745   0.03439   0.11465
H          H       0.28209   0.04449   0.17486   0.11163
H          H       0.32719   0.22904   0.21196   0.05318
H          H       0.30443   0.26960   0.15593   0.05165
H          H       0.47643   0.26530   0.21401   0.09119
H          H       0.45382   0.30548   0.15855   0.09495
H          H       0.33748   0.35375   0.21241   0.11149
H          H       0.43916   0.36048   0.24258   0.11799
H          H       0.36447   0.31409   0.26825   0.11601
H          H       0.36886   0.09122   0.24088   0.09189
H          H       0.40347   0.15779   0.23118   0.10230
H          H       0.43304   0.02167   0.17177   0.10576
H          H       0.56980   0.98789   0.13490   0.10354
H          H       0.69569   0.04828   0.13156   0.11409
H          H       0.49714   0.20888   0.28567   0.06676
H          H       0.53901   0.14297   0.29004   0.06588
H          H       0.64530   0.24561   0.27892   0.08946
H          H       0.68796   0.18082   0.28326   0.08612
H          H       0.62805   0.16979   0.37535   0.10709
H          H       0.58157   0.23424   0.37192   0.11509
H          H       0.69451   0.22701   0.37186   0.11883
H          H       0.70224   0.18469   0.19078   0.09469
H          H       0.76743   0.12845   0.17694   0.10640
H          H       0.92801   0.97060   0.82209   0.11502
H          H       0.00224   0.96938   0.57286   0.07145
H          H       0.05765   0.00556   0.62284   0.05912
H          H       0.86376   0.00511   0.60689   0.08960
H          H       0.91773   0.04024   0.65762   0.09224
H          H       0.99079   0.09866   0.59087   0.11324
H          H       0.87927   0.10082   0.57995   0.11871
H          H       0.94490   0.06217   0.53775   0.11361
H          H       0.19008   0.95586   0.77466   0.11866
H          H       0.22531   0.93115   0.68676   0.11221
H          H       0.15580   0.94737   0.63351   0.09542
H          H       0.15714   0.84346   0.74204   0.10240
H          H       0.12717   0.74725   0.72551   0.10119
H          H       0.08463   0.71714   0.63481   0.11464
H          H       0.19978   0.85642   0.50142   0.06068
H          H       0.25519   0.85702   0.56297   0.06000
H          H       0.24938   0.95775   0.56342   0.08944
H          H       0.20111   0.95682   0.50012   0.09299
H          H       0.36185   0.96970   0.49359   0.11708
H          H       0.33032   0.90934   0.46221   0.11782
H          H       0.37771   0.90762   0.52618   0.11322
H          H       0.06600   0.81192   0.51867   0.09860
H          H       0.10826   0.74681   0.52773   0.11123
H          H       0.02021   0.67271   0.53980   0.11653
H          H       0.76089   0.68865   0.59152   0.11526
H          H       0.95550   0.84677   0.48953   0.05905
H          H       0.94298   0.90695   0.52605   0.07463
H          H       0.78582   0.89600   0.52453   0.08849
H          H       0.79530   0.83305   0.49327   0.08963
H          H       0.85148   0.94006   0.44259   0.11324
H          H       0.75859   0.90348   0.42531   0.11916
H          H       0.86061   0.87632   0.41232   0.11757
H          H       0.74582   0.83163   0.58071   0.09608
H          H       0.70038   0.77249   0.60736   0.10856
H          H       0.79803   0.73640   0.69274   0.10760
H          H       0.85119   0.76754   0.78082   0.10237
H          H       0.87932   0.86409   0.79576   0.11363
H          H       0.67830   0.93620   0.68462   0.05976
H          H       0.63974   0.89420   0.63304   0.06248
H          H       0.71639   0.00629   0.61820   0.08422
H          H       0.67913   0.96539   0.56629   0.08286
H          H       0.53021   0.96653   0.60722   0.11424
H          H       0.56568   0.03201   0.59195   0.11780
H          H       0.56856   0.00881   0.65846   0.12443
H          H       0.81658   0.96363   0.76062   0.10991
H          H       0.83521   0.96927   0.69117   0.09860
H          H       0.18652   0.60538   0.40881   0.11329
H          H       0.28274   0.75952   0.33300   0.06291
H          H       0.38673   0.78376   0.31887   0.07727
H          H       0.37719   0.84609   0.39609   0.08328
H          H       0.27718   0.81936   0.41366   0.08293
H          H       0.25805   0.90613   0.36354   0.11533
H          H       0.21364   0.85251   0.32674   0.12072
H          H       0.31386   0.87941   0.30850   0.12228
H          H       0.26413   0.69605   0.54556   0.11732
H          H       0.40052   0.79073   0.47040   0.09806
H          H       0.35927   0.77329   0.53391   0.09843
H          H       0.41156   0.67423   0.56544   0.10771
H          H       0.54300   0.62105   0.58133   0.10354
H          H       0.67337   0.64000   0.52900   0.11493
H          H       0.63012   0.83069   0.49870   0.06162
H          H       0.51920   0.84148   0.50805   0.05416
H          H       0.50843   0.88066   0.41641   0.08486
H          H       0.61774   0.86961   0.40660   0.09311
H          H       0.54298   0.94339   0.49373   0.11597
H          H       0.58999   0.96569   0.43377   0.12269
H          H       0.65319   0.93282   0.48229   0.11436
H          H       0.69048   0.75436   0.43224   0.10114
H          H       0.75533   0.72024   0.47968   0.10290
H          H       0.79905   0.62745   0.46561   0.11468
H          H       0.71792   0.54449   0.32513   0.11163
H          H       0.67281   0.72904   0.28804   0.05313
H          H       0.69556   0.76960   0.34407   0.05162
H          H       0.52357   0.76530   0.28599   0.09114
H          H       0.54618   0.80548   0.34145   0.09495
H          H       0.66252   0.85375   0.28759   0.11148
H          H       0.56083   0.86048   0.25742   0.11809
H          H       0.63553   0.81409   0.23175   0.11596
H          H       0.63114   0.59122   0.25911   0.09178
H          H       0.59653   0.65779   0.26882   0.10230
H          H       0.56696   0.52168   0.32823   0.10574
H          H       0.43020   0.48789   0.36510   0.10347
H          H       0.30431   0.54828   0.36844   0.11406
H          H       0.50286   0.70888   0.21433   0.06681
H          H       0.46098   0.64297   0.20995   0.06584
H          H       0.35470   0.74561   0.22108   0.08963
H          H       0.31204   0.68082   0.21674   0.08609
H          H       0.37195   0.66979   0.12465   0.10704
H          H       0.41843   0.73424   0.12808   0.11515
H          H       0.30549   0.72701   0.12814   0.11895
H          H       0.29776   0.68469   0.30922   0.09470
H          H       0.23256   0.62845   0.32306   0.10638
H          H       0.07199   0.47060   0.67791   0.11491
H          H       0.99776   0.46937   0.92714   0.07152
H          H       0.94235   0.50556   0.87716   0.05916
H          H       0.13624   0.50511   0.89311   0.08959
H          H       0.08227   0.54024   0.84238   0.09229
H          H       0.00921   0.59866   0.90913   0.11326
H          H       0.12073   0.60082   0.92005   0.11874
H          H       0.05510   0.56217   0.96225   0.11356
H          H       0.80991   0.45586   0.72534   0.11871
H          H       0.77469   0.43115   0.81324   0.11228
H          H       0.84420   0.44737   0.86649   0.09539
H          H       0.84285   0.34346   0.75796   0.10239
H          H       0.87283   0.24725   0.77449   0.10120
H          H       0.91537   0.21714   0.86519   0.11478
H          H       0.80022   0.35642   0.99858   0.06071
H          H       0.74481   0.35702   0.93703   0.06012
H          H       0.75062   0.45775   0.93658   0.08936
H          H       0.79888   0.45682  -0.00012   0.09288
H          H       0.63814   0.46970   0.00641   0.11706
H          H       0.66968   0.40934   0.03779   0.11791
H          H       0.62229   0.40761   0.97382   0.11332
H          H       0.93399   0.31192   0.98133   0.09855
H          H       0.89174   0.24680   0.97227   0.11135
H          H       0.97979   0.17271   0.96021   0.11658
H          H       0.23911   0.18865   0.90848   0.11534
H          H       0.04450   0.34677   0.01047   0.05914
H          H       0.05702   0.40695   0.97395   0.07459
H          H       0.21418   0.39600   0.97547   0.08839
H          H       0.20470   0.33305   0.00673   0.08964
H          H       0.14852   0.44006   0.05741   0.11324
H          H       0.24141   0.40348   0.07469   0.11915
H          H       0.13938   0.37632   0.08768   0.11765
H          H       0.25417   0.33163   0.91929   0.09601
H          H       0.29962   0.27249   0.89264   0.10859
H          H       0.20197   0.23640   0.80726   0.10762
H          H       0.14880   0.26754   0.71918   0.10237
H          H       0.12068   0.36408   0.70424   0.11362
H          H       0.32170   0.43620   0.81538   0.05971
H          H       0.36026   0.39420   0.86696   0.06250
H          H       0.28361   0.50629   0.88180   0.08421
H          H       0.32087   0.46539   0.93371   0.08291
H          H       0.46979   0.46653   0.89278   0.11425
H          H       0.43432   0.53201   0.90805   0.11784
H          H       0.43144   0.50881   0.84154   0.12447
H          H       0.18342   0.46363   0.73938   0.10980
H          H       0.16479   0.46927   0.80883   0.09853
C          C       0.16487   0.88581   0.01491   0.58021
C          C       0.21888   0.85204   0.98056  -0.06019
C          C       0.22405   0.86232   0.92588  -0.14971
C          C       0.27785   0.83262   0.89310   0.02862
C          C       0.32620   0.79107   0.91646   0.15548
C          C       0.34060   0.72309   0.85082   0.02113
C          C       0.31828   0.67118   0.87960  -0.15325
C          C       0.27365   0.63116   0.84259  -0.36847
C          C       0.32418   0.78107   0.97173   0.02736
C          C       0.26860   0.81117   0.00302  -0.15457
C          C       0.38714   0.74267   0.99720  -0.23033
C          C       0.47018   0.77191   0.00965   0.02297
C          C       0.47035   0.81514   0.04517  -0.14934
C          C       0.54376   0.84560   0.05354  -0.09983
C          C       0.61736   0.83456   0.02456  -0.14522
C          C       0.61984   0.79152   0.98889   0.02976
C          C       0.54673   0.75923   0.98332   0.13173
C          C       0.56838   0.66593   0.97770   0.02579
C          C       0.57025   0.62076   0.93717  -0.13922
C          C       0.59012   0.56679   0.96313  -0.38074
C          C       0.69818   0.78303   0.95444  -0.22384
C          C       0.70868   0.82985   0.91661   0.02979
C          C       0.76086   0.87333   0.92952  -0.14116
C          C       0.76433   0.91851   0.89652  -0.05462
C          C       0.81934   0.96482   0.91006   0.58110
C          C       0.71504   0.91994   0.84990  -0.15438
C          C       0.66242   0.87729   0.83570   0.03171
C          C       0.66020   0.83230   0.86938   0.15555
C          C       0.64371   0.75109   0.82258   0.03216
C          C       0.57460   0.71194   0.80557  -0.14892
C          C       0.61023   0.66862   0.76866  -0.36896
C          C       0.60308   0.88115   0.78817  -0.22106
C          C       0.51635   0.90153   0.80597   0.01606
C          C       0.51032   0.95316   0.82731  -0.14771
C          C       0.43425   0.97183   0.84896  -0.10246
C          C       0.36374   0.93794   0.85104  -0.14695
C          C       0.36710   0.88610   0.83001   0.03020
C          C       0.44310   0.86877   0.80572   0.13433
C          C       0.44866   0.81670   0.72558   0.02294
C          C       0.36537   0.79410   0.70354  -0.14737
C          C       0.36552   0.79042   0.64277  -0.36889
C          C       0.28998   0.84964   0.83562  -0.22443
C          C       0.91017   0.02067   0.14153   0.57755
C          C       0.93781   0.03292   0.19648  -0.05581
C          C       0.02495   0.03549   0.20894  -0.16008
C          C       0.05272   0.04533   0.26082   0.03438
C          C       0.99079   0.05173   0.30071   0.15392
C          C       0.00344   0.01376   0.38702   0.02866
C          C       0.07676   0.97362   0.38368  -0.15508
C          C       0.06465   0.92556   0.42076  -0.37113
C          C       0.90283   0.05419   0.28821   0.01905
C          C       0.87730   0.04367   0.23604  -0.15699
C          C       0.83968   0.07453   0.32888  -0.22674
C          C       0.85619   0.13350   0.33988   0.02867
C          C       0.85650   0.17050   0.29808  -0.13827
C          C       0.87468   0.22436   0.30721  -0.09695
C          C       0.89753   0.24138   0.35813  -0.13886
C          C       0.89978   0.20526   0.40071   0.03182
C          C       0.87563   0.15196   0.39129   0.12917
C          C       0.79028   0.12046   0.46176   0.02846
C          C       0.75464   0.06511   0.47381  -0.14681
C          C       0.66639   0.06977   0.49943  -0.37304
C          C       0.93366   0.22273   0.45470  -0.22665
C          C       0.02204   0.24634   0.44800   0.02761
C          C       0.03294   0.30167   0.44941  -0.15040
C          C       0.11117   0.32513   0.43612  -0.05811
C          C       0.12141   0.38371   0.44030   0.58264
C          C       0.17901   0.29278   0.41964  -0.15263
C          C       0.17057   0.23722   0.41780   0.02920
C          C       0.09234   0.21421   0.43364   0.15068
C          C       0.08544   0.13237   0.48173   0.03104
C          C       0.17587   0.12695   0.50397  -0.15822
C          C       0.17631   0.10028   0.55885  -0.36927
C          C       0.24112   0.20337   0.39444  -0.22976
C          C       0.21478   0.18427   0.33951   0.02719
C          C       0.19439   0.22104   0.29938  -0.14941
C          C       0.16303   0.20365   0.25036  -0.10013
C          C       0.14825   0.14929   0.24171  -0.13557
C          C       0.16762   0.11143   0.28102   0.03121
C          C       0.20362   0.12955   0.32904   0.13141
C          C       0.31439   0.07359   0.35781   0.02402
C          C       0.33113   0.02447   0.39175  -0.14188
C          C       0.42153   0.00308   0.38309  -0.37627
C          C       0.14671   0.05263   0.27282  -0.22742
C          C       0.83513   0.38581   0.48509   0.58024
C          C       0.78111   0.35204   0.51944  -0.06013
C          C       0.77595   0.36232   0.57412  -0.14973
C          C       0.72215   0.33262   0.60690   0.02862
C          C       0.67380   0.29107   0.58354   0.15555
C          C       0.65940   0.22309   0.64918   0.02116
C          C       0.68172   0.17118   0.62040  -0.15326
C          C       0.72634   0.13116   0.65741  -0.36862
C          C       0.67582   0.28107   0.52827   0.02730
C          C       0.73140   0.31117   0.49698  -0.15461
C          C       0.61286   0.24267   0.50280  -0.23032
C          C       0.52982   0.27191   0.49035   0.02315
C          C       0.52965   0.31514   0.45483  -0.14942
C          C       0.45624   0.34560   0.44646  -0.09977
C          C       0.38264   0.33456   0.47544  -0.14528
C          C       0.38016   0.29152   0.51112   0.03007
C          C       0.45327   0.25923   0.51668   0.13152
C          C       0.43162   0.16593   0.52230   0.02577
C          C       0.42975   0.12076   0.56283  -0.13922
C          C       0.40988   0.06679   0.53687  -0.38065
C          C       0.30182   0.28303   0.54556  -0.22396
C          C       0.29132   0.32985   0.58339   0.02985
C          C       0.23914   0.37333   0.57048  -0.14117
C          C       0.23567   0.41851   0.60349  -0.05466
C          C       0.18066   0.46482   0.58994   0.58083
C          C       0.28495   0.41994   0.65010  -0.15435
C          C       0.33758   0.37728   0.66430   0.03182
C          C       0.33979   0.33230   0.63062   0.15544
C          C       0.35629   0.25109   0.67742   0.03227
C          C       0.42539   0.21194   0.69443  -0.14891
C          C       0.38977   0.16862   0.73134  -0.36896
C          C       0.39692   0.38115   0.71183  -0.22102
C          C       0.48364   0.40152   0.69404   0.01610
C          C       0.48968   0.45316   0.67269  -0.14764
C          C       0.56574   0.47183   0.65104  -0.10260
C          C       0.63626   0.43794   0.64896  -0.14689
C          C       0.63290   0.38610   0.66999   0.03015
C          C       0.55690   0.36876   0.69428   0.13425
C          C       0.55134   0.31670   0.77442   0.02290
C          C       0.63463   0.29410   0.79646  -0.14736
C          C       0.63448   0.29042   0.85723  -0.36910
C          C       0.71003   0.34964   0.66438  -0.22435
C          C       0.08983   0.52067   0.35847   0.57757
C          C       0.06220   0.53292   0.30351  -0.05584
C          C       0.97505   0.53549   0.29106  -0.16000
C          C       0.94728   0.54533   0.23918   0.03426
C          C       0.00921   0.55173   0.19929   0.15396
C          C       0.99656   0.51376   0.11298   0.02849
C          C       0.92323   0.47361   0.11632  -0.15523
C          C       0.93535   0.42556   0.07924  -0.37118
C          C       0.09717   0.55419   0.21179   0.01903
C          C       0.12270   0.54367   0.26396  -0.15692
C          C       0.16033   0.57453   0.17112  -0.22679
C          C       0.14381   0.63350   0.16012   0.02861
C          C       0.14350   0.67050   0.20192  -0.13824
C          C       0.12532   0.72436   0.19279  -0.09695
C          C       0.10247   0.74138   0.14187  -0.13877
C          C       0.10022   0.70526   0.09930   0.03184
C          C       0.12437   0.65196   0.10871   0.12930
C          C       0.20972   0.62046   0.03824   0.02859
C          C       0.24536   0.56512   0.02619  -0.14684
C          C       0.33361   0.56978   0.00057  -0.37315
C          C       0.06634   0.72273   0.04530  -0.22686
C          C       0.97796   0.74634   0.05200   0.02767
C          C       0.96706   0.80168   0.05059  -0.15037
C          C       0.88883   0.82513   0.06387  -0.05811
C          C       0.87859   0.88371   0.05969   0.58253
C          C       0.82098   0.79278   0.08035  -0.15260
C          C       0.82943   0.73722   0.08219   0.02921
C          C       0.90766   0.71421   0.06636   0.15061
C          C       0.91456   0.63237   0.01827   0.03114
C          C       0.82413   0.62695   0.99603  -0.15820
C          C       0.82369   0.60028   0.94115  -0.36930
C          C       0.75888   0.70337   0.10556  -0.22967
C          C       0.78522   0.68427   0.16049   0.02707
C          C       0.80561   0.72104   0.20062  -0.14936
C          C       0.83696   0.70365   0.24964  -0.10011
C          C       0.85175   0.64929   0.25829  -0.13544
C          C       0.83238   0.61144   0.21898   0.03111
C          C       0.79638   0.62955   0.17096   0.13152
C          C       0.68561   0.57359   0.14219   0.02402
C          C       0.66887   0.52447   0.10825  -0.14206
C          C       0.57847   0.50308   0.11691  -0.37645
C          C       0.85329   0.55263   0.22718  -0.22736
C          C       0.83513   0.11419   0.98509   0.58025
C          C       0.78111   0.14796   0.01944  -0.06015
C          C       0.77595   0.13768   0.07412  -0.14978
C          C       0.72215   0.16738   0.10690   0.02866
C          C       0.67380   0.20893   0.08354   0.15557
C          C       0.65940   0.27691   0.14918   0.02120
C          C       0.68172   0.32882   0.12040  -0.15328
C          C       0.72634   0.36884   0.15741  -0.36851
C          C       0.67582   0.21893   0.02827   0.02734
C          C       0.73140   0.18883   0.99698  -0.15463
C          C       0.61286   0.25733   0.00280  -0.23036
C          C       0.52982   0.22809   0.99035   0.02304
C          C       0.52965   0.18486   0.95483  -0.14935
C          C       0.45624   0.15440   0.94646  -0.09981
C          C       0.38264   0.16544   0.97544  -0.14518
C          C       0.38016   0.20848   0.01111   0.02987
C          C       0.45327   0.24078   0.01668   0.13164
C          C       0.43162   0.33407   0.02230   0.02576
C          C       0.42975   0.37924   0.06283  -0.13926
C          C       0.40988   0.43321   0.03687  -0.38073
C          C       0.30182   0.21697   0.04556  -0.22394
C          C       0.29132   0.17015   0.08339   0.02981
C          C       0.23914   0.12667   0.07048  -0.14105
C          C       0.23567   0.08149   0.10348  -0.05480
C          C       0.18066   0.03518   0.08994   0.58118
C          C       0.28496   0.08006   0.15010  -0.15430
C          C       0.33758   0.12272   0.16430   0.03177
C          C       0.33979   0.16770   0.13062   0.15550
C          C       0.35629   0.24892   0.17742   0.03217
C          C       0.42539   0.28806   0.19443  -0.14894
C          C       0.38977   0.33138   0.23134  -0.36897
C          C       0.39692   0.11885   0.21183  -0.22113
C          C       0.48364   0.09848   0.19403   0.01610
C          C       0.48968   0.04684   0.17269  -0.14764
C          C       0.56575   0.02817   0.15104  -0.10261
C          C       0.63626   0.06206   0.14896  -0.14691
C          C       0.63290   0.11390   0.16999   0.03016
C          C       0.55689   0.13123   0.19428   0.13428
C          C       0.55134   0.18330   0.27442   0.02297
C          C       0.63462   0.20590   0.29646  -0.14735
C          C       0.63448   0.20958   0.35723  -0.36899
C          C       0.71002   0.15036   0.16438  -0.22436
C          C       0.08983   0.97933   0.85847   0.57766
C          C       0.06219   0.96708   0.80352  -0.05584
C          C       0.97505   0.96451   0.79106  -0.16015
C          C       0.94728   0.95467   0.73918   0.03445
C          C       0.00921   0.94827   0.69929   0.15399
C          C       0.99655   0.98624   0.61298   0.02868
C          C       0.92324   0.02639   0.61632  -0.15503
C          C       0.93535   0.07444   0.57924  -0.37114
C          C       0.09717   0.94581   0.71179   0.01899
C          C       0.12270   0.95633   0.76396  -0.15696
C          C       0.16032   0.92547   0.67112  -0.22665
C          C       0.14381   0.86650   0.66012   0.02858
C          C       0.14350   0.82950   0.70192  -0.13820
C          C       0.12532   0.77564   0.69279  -0.09707
C          C       0.10247   0.75862   0.64187  -0.13886
C          C       0.10022   0.79475   0.59929   0.03184
C          C       0.12437   0.84804   0.60871   0.12926
C          C       0.20972   0.87955   0.53824   0.02842
C          C       0.24536   0.93489   0.52619  -0.14675
C          C       0.33361   0.93023   0.50057  -0.37303
C          C       0.06634   0.77727   0.54530  -0.22661
C          C       0.97796   0.75366   0.55200   0.02749
C          C       0.96706   0.69833   0.55059  -0.15037
C          C       0.88883   0.67487   0.56388  -0.05812
C          C       0.87859   0.61629   0.55969   0.58254
C          C       0.82099   0.70722   0.58036  -0.15253
C          C       0.82943   0.76278   0.58220   0.02930
C          C       0.90766   0.78580   0.56636   0.15062
C          C       0.91456   0.86763   0.51827   0.03111
C          C       0.82413   0.87305   0.49603  -0.15832
C          C       0.82369   0.89972   0.44115  -0.36919
C          C       0.75888   0.79663   0.60556  -0.22970
C          C       0.78522   0.81573   0.66049   0.02706
C          C       0.80561   0.77897   0.70061  -0.14934
C          C       0.83696   0.79635   0.74964  -0.10031
C          C       0.85175   0.85071   0.75829  -0.13558
C          C       0.83238   0.88857   0.71898   0.03117
C          C       0.79638   0.87045   0.67096   0.13148
C          C       0.68561   0.92641   0.64219   0.02398
C          C       0.66887   0.97553   0.60825  -0.14194
C          C       0.57847   0.99692   0.61691  -0.37632
C          C       0.85329   0.94738   0.72718  -0.22746
C          C       0.16487   0.61419   0.51491   0.58027
C          C       0.21889   0.64796   0.48056  -0.06022
C          C       0.22405   0.63768   0.42588  -0.14971
C          C       0.27785   0.66738   0.39310   0.02860
C          C       0.32620   0.70893   0.41646   0.15556
C          C       0.34060   0.77691   0.35082   0.02122
C          C       0.31828   0.82882   0.37960  -0.15332
C          C       0.27365   0.86884   0.34259  -0.36853
C          C       0.32418   0.71893   0.47173   0.02742
C          C       0.26860   0.68883   0.50302  -0.15466
C          C       0.38714   0.75733   0.49720  -0.23031
C          C       0.47018   0.72809   0.50965   0.02314
C          C       0.47035   0.68486   0.54517  -0.14939
C          C       0.54376   0.65440   0.55354  -0.09988
C          C       0.61736   0.66544   0.52456  -0.14527
C          C       0.61984   0.70848   0.48888   0.03005
C          C       0.54673   0.74077   0.48332   0.13154
C          C       0.56838   0.83407   0.47770   0.02580
C          C       0.57025   0.87924   0.43717  -0.13922
C          C       0.59012   0.93321   0.46313  -0.38075
C          C       0.69818   0.71697   0.45444  -0.22408
C          C       0.70868   0.67015   0.41661   0.02998
C          C       0.76086   0.62667   0.42952  -0.14120
C          C       0.76433   0.58149   0.39651  -0.05471
C          C       0.81934   0.53518   0.41006   0.58101
C          C       0.71505   0.58006   0.34990  -0.15451
C          C       0.66242   0.62272   0.33570   0.03187
C          C       0.66021   0.66770   0.36938   0.15544
C          C       0.64371   0.74892   0.32258   0.03220
C          C       0.57460   0.78806   0.30557  -0.14882
C          C       0.61023   0.83138   0.26866  -0.36899
C          C       0.60308   0.61885   0.28817  -0.22092
C          C       0.51635   0.59848   0.30596   0.01598
C          C       0.51032   0.54684   0.32731  -0.14769
C          C       0.43425   0.52818   0.34896  -0.10258
C          C       0.36374   0.56206   0.35104  -0.14685
C          C       0.36710   0.61391   0.33001   0.03015
C          C       0.44310   0.63124   0.30572   0.13433
C          C       0.44866   0.68330   0.22558   0.02289
C          C       0.36537   0.70590   0.20354  -0.14747
C          C       0.36552   0.70958   0.14277  -0.36910
C          C       0.28997   0.65036   0.33562  -0.22431
C          C       0.91017   0.47933   0.64153   0.57750
C          C       0.93780   0.46708   0.69649  -0.05582
C          C       0.02495   0.46451   0.70894  -0.16001
C          C       0.05272   0.45467   0.76082   0.03431
C          C       0.99079   0.44827   0.80071   0.15388
C          C       0.00344   0.48624   0.88702   0.02854
C          C       0.07676   0.52639   0.88368  -0.15524
C          C       0.06465   0.57444   0.92076  -0.37105
C          C       0.90283   0.44581   0.78821   0.01904
C          C       0.87730   0.45633   0.73604  -0.15693
C          C       0.83967   0.42547   0.82888  -0.22673
C          C       0.85618   0.36650   0.83988   0.02868
C          C       0.85650   0.32950   0.79808  -0.13825
C          C       0.87468   0.27564   0.80721  -0.09693
C          C       0.89753   0.25862   0.85813  -0.13813
C          C       0.89978   0.29474   0.90071   0.02950
C          C       0.87563   0.34804   0.89129   0.12992
C          C       0.79028   0.37954   0.96176   0.02845
C          C       0.75464   0.43489   0.97381  -0.14670
C          C       0.66639   0.43023  -0.00057  -0.37315
C          C       0.93366   0.27727   0.95470  -0.22600
C          C       0.02204   0.25366   0.94800   0.02765
C          C       0.03294   0.19833   0.94941  -0.15038
C          C       0.11117   0.17487   0.93613  -0.05817
C          C       0.12141   0.11629   0.94031   0.58269
C          C       0.17901   0.20722   0.91965  -0.15262
C          C       0.17057   0.26278   0.91781   0.02928
C          C       0.09234   0.28579   0.93364   0.15063
C          C       0.08544   0.36763   0.98173   0.03104
C          C       0.17587   0.37305   0.00397  -0.15826
C          C       0.17631   0.39972   0.05885  -0.36929
C          C       0.24112   0.29663   0.89444  -0.22983
C          C       0.21478   0.31573   0.83951   0.02713
C          C       0.19439   0.27896   0.79938  -0.14933
C          C       0.16303   0.29635   0.75036  -0.10015
C          C       0.14825   0.35071   0.74171  -0.13557
C          C       0.16762   0.38857   0.78102   0.03111
C          C       0.20362   0.37045   0.82904   0.13152
C          C       0.31439   0.42641   0.85781   0.02398
C          C       0.33113   0.47553   0.89175  -0.14197
C          C       0.42153   0.49692   0.88309  -0.37647
C          C       0.14671   0.44737   0.77282  -0.22737
O          O       0.12948   0.92851   0.99526  -0.61466
O          O       0.15167   0.87303   0.06328  -0.54148
O          O       0.38123   0.76137   0.88591  -0.19459
O          O       0.54975   0.71486   0.94974  -0.22933
O          O       0.60587   0.79076   0.85717  -0.20744
O          O       0.82709   0.00261   0.87584  -0.55089
O          O       0.86094   0.96577   0.95436  -0.60944
O          O       0.44586   0.81805   0.78317  -0.23256
O          O       0.96605   0.01048   0.10541  -0.60715
O          O       0.83083   0.02116   0.12966  -0.54281
O          O       0.01737   0.05937   0.35245  -0.20122
O          O       0.87072   0.11617   0.43376  -0.24487
O          O       0.08288   0.15939   0.43091  -0.20170
O          O       0.05549   0.41305   0.44983  -0.61335
O          O       0.19562   0.40459   0.43711  -0.54057
O          O       0.22867   0.09227   0.36742  -0.23421
O          O       0.87051   0.42851   0.50474  -0.61482
O          O       0.84833   0.37302   0.43672  -0.54141
O          O       0.61877   0.26137   0.61409  -0.19456
O          O       0.45025   0.21486   0.55026  -0.22930
O          O       0.39413   0.29076   0.64283  -0.20750
O          O       0.17291   0.50261   0.62416  -0.55079
O          O       0.13906   0.46577   0.54564  -0.60929
O          O       0.55414   0.31805   0.71683  -0.23246
O          O       0.03395   0.51048   0.39459  -0.60722
O          O       0.16917   0.52116   0.37034  -0.54282
O          O       0.98263   0.55937   0.14755  -0.20111
O          O       0.12928   0.61617   0.06624  -0.24501
O          O       0.91712   0.65939   0.06909  -0.20168
O          O       0.94451   0.91305   0.05017  -0.61329
O          O       0.80438   0.90459   0.06288  -0.54046
O          O       0.77133   0.59227   0.13258  -0.23429
O          O       0.87051   0.07149   0.00474  -0.61475
O          O       0.84833   0.12697   0.93672  -0.54142
O          O       0.61877   0.23863   0.11409  -0.19465
O          O       0.45025   0.28514   0.05026  -0.22931
O          O       0.39413   0.20924   0.14283  -0.20742
O          O       0.17291   0.99739   0.12416  -0.55097
O          O       0.13906   0.03423   0.04564  -0.60943
O          O       0.55414   0.18195   0.21683  -0.23244
O          O       0.03395   0.98952   0.89459  -0.60715
O          O       0.16917   0.97884   0.87034  -0.54295
O          O       0.98263   0.94063   0.64755  -0.20128
O          O       0.12928   0.88383   0.56624  -0.24481
O          O       0.91712   0.84061   0.56909  -0.20164
O          O       0.94451   0.58695   0.55017  -0.61336
O          O       0.80438   0.59541   0.56289  -0.54050
O          O       0.77133   0.90773   0.63258  -0.23420
O          O       0.12948   0.57149   0.49526  -0.61486
O          O       0.15167   0.62698   0.56328  -0.54134
O          O       0.38123   0.73863   0.38591  -0.19473
O          O       0.54975   0.78514   0.44974  -0.22928
O          O       0.60587   0.70925   0.35717  -0.20741
O          O       0.82709   0.49739   0.37584  -0.55094
O          O       0.86093   0.53423   0.45436  -0.60933
O          O       0.44586   0.68195   0.28317  -0.23241
O          O       0.96605   0.48952   0.60541  -0.60720
O          O       0.83083   0.47884   0.62966  -0.54276
O          O       0.01737   0.44063   0.85245  -0.20119
O          O       0.87072   0.38383   0.93376  -0.24487
O          O       0.08288   0.34061   0.93091  -0.20166
O          O       0.05549   0.08695   0.94983  -0.61336
O          O       0.19562   0.09541   0.93712  -0.54057
O          O       0.22867   0.40773   0.86742  -0.23422

