data_crystal

_audit_creation_method 'AiiDA-DDEC plugin'

_cell_length_a        20.98554
_cell_length_b        20.97474
_cell_length_c        27.25996

_cell_angle_alpha     112.60439
_cell_angle_beta     112.59463
_cell_angle_gamma     90.09562

_symmetry_space_group_name_Hall 'P 1'
_symmetry_space_group_name_H-M  'P 1'

loop_
_symmetry_equiv_pos_as_xyz
 'x,y,z'

loop_
_atom_site_label
_atom_site_type_symbol
_atom_site_fract_x
_atom_site_fract_y
_atom_site_fract_z
_atom_site_charge
Cu         Cu      0.63432   0.63206   0.50112   0.10843
Cu         Cu      0.88248   0.38412   0.00127   0.11025
Cu         Cu      0.13040   0.13293   0.49897   0.10995
Cu         Cu      0.38246   0.88186  -0.00096   0.11168
H          H       0.76339   0.53374   0.21833   0.11773
H          H       0.80250   0.34648   0.24359   0.11471
H          H       0.74379   0.11263   0.05549   0.10962
H          H       0.95826   0.17803   0.18177   0.10723
H          H       0.00848   0.30951   0.23186   0.13693
H          H       0.94892   0.36932   0.23927   0.13144
H          H       0.95972   0.31075   0.27278   0.13212
H          H       0.66746   0.19345   0.04827   0.12750
H          H       0.68663   0.26107   0.11859   0.15269
H          H       0.70376   0.28118   0.06734   0.12604
H          H       0.91271   0.05483   0.12515   0.13293
H          H       0.82048   0.02619   0.08809   0.13434
H          H       0.86752   0.04336   0.05154   0.12902
H          H       0.88439   0.67276   0.17015   0.09680
H          H       0.72908   0.52900   0.00392   0.11080
H          H       0.65458   0.43960   0.00685   0.13334
H          H       0.72214   0.39058   0.00296   0.12753
H          H       0.69242   0.40248   0.05824   0.12335
H          H       0.83683   0.70879   0.08876   0.12943
H          H       0.86159   0.63979   0.04071   0.13458
H          H       0.77258   0.65005   0.01943   0.13009
H          H       0.91655   0.55369   0.23976   0.13127
H          H       0.93564   0.64061   0.24724   0.11875
H          H       0.86433   0.61621   0.25908   0.13603
H          H       0.76534   0.57556   0.29923   0.10471
H          H       0.57175   0.28644   0.35320   0.09356
H          H       0.78895   0.28315   0.44502   0.10956
H          H       0.87773   0.35052   0.44462   0.12698
H          H       0.85055   0.36317   0.37863   0.13707
H          H       0.86158   0.43391   0.44411   0.11856
H          H       0.54061   0.34443   0.28891   0.11474
H          H       0.57546   0.43273   0.33937   0.12586
H          H       0.60605   0.39307   0.28420   0.13745
H          H       0.69972   0.19930   0.43521   0.13016
H          H       0.64289   0.25284   0.45889   0.12426
H          H       0.61090   0.18846   0.38604   0.12716
H          H       0.80484   0.79565   0.48935   0.10269
H          H       0.58689   0.72176   0.37409   0.10033
H          H       0.85497   0.61889   0.44243   0.12946
H          H       0.88284   0.69375   0.43588   0.12240
H          H       0.87800   0.70367   0.50172   0.12508
H          H       0.72444   0.87853   0.49137   0.11997
H          H       0.64628   0.85644   0.42656   0.12737
H          H       0.64471   0.83821   0.48410   0.13204
H          H       0.59508   0.53821   0.32437   0.12652
H          H       0.54315   0.60215   0.31292   0.12044
H          H       0.59667   0.57151   0.27448   0.13714
H          H       0.69543   0.96941   0.70570   0.11913
H          H       0.90365   0.96775   0.71066   0.11823
H          H       0.98360   0.85788   0.55945   0.10936
H          H       0.99001   0.72731   0.64943   0.10584
H          H       0.87168   0.81523   0.71351   0.12924
H          H       0.84305   0.72803   0.65880   0.14104
H          H       0.92996   0.75385   0.71290   0.12322
H          H       0.89205   0.92518   0.54316   0.12618
H          H       0.82423   0.92230   0.56682   0.12411
H          H       0.90613   0.97757   0.61593   0.13500
H          H       0.07516   0.78727   0.57211   0.13058
H          H       0.09143   0.75029   0.62371   0.13465
H          H       0.02996   0.70267   0.55044   0.13723
H          H       0.66051   0.73066   0.68891   0.12972
H          H       0.70851   0.72999   0.64803   0.13001
H          H       0.71976   0.80687   0.71028   0.13153
H          H       0.54100   0.71515   0.62597   0.10544
H          H       0.46881   0.86440   0.55403   0.10041
H          H       0.54795   0.93313   0.54252   0.11950
H          H       0.60452   0.98307   0.61701   0.13238
H          H       0.63910   0.93025   0.56833   0.13027
H          H       0.41869   0.71269   0.58274   0.13052
H          H       0.39522   0.79639   0.59091   0.13115
H          H       0.39025   0.73608   0.52256   0.12967
H          H       0.92572   0.07096   0.76111   0.11728
H          H       0.73665   0.04551   0.78458   0.11968
H          H       0.73201   0.22671   0.99295   0.11074
H          H       0.58963   0.20850   0.82383   0.10131
H          H       0.70354   0.13483   0.74828   0.12598
H          H       0.61484   0.13525   0.73857   0.13185
H          H       0.67041   0.21416   0.76212   0.13747
H          H       0.82307   0.14752   0.99046   0.13034
H          H       0.86421   0.14163   0.94310   0.12166
H          H       0.87045   0.22369  -0.00060   0.13058
H          H       0.61189   0.25325   0.97670   0.13034
H          H       0.60928   0.31309   0.94469   0.14087
H          H       0.54927   0.23323   0.90442   0.12742
H          H       0.08471   0.27462   0.80971   0.11515
H          H       0.15362   0.20863   0.94981   0.09843
H          H       0.95621   0.27147   0.75845   0.14973
H          H       0.89469   0.21425   0.75967   0.13028
H          H       0.94844   0.17937   0.72302   0.12528
H          H       0.99209   0.09665   0.89858   0.13294
H          H       0.07506   0.13723   0.95837   0.12223
H          H       0.00048   0.17754   0.95679   0.13432
H          H       0.24017   0.25413   0.92649   0.13014
H          H       0.21320   0.27157   0.86321   0.13798
H          H       0.21314   0.33490   0.92874   0.13641
H          H       0.78351   0.51294   0.71838   0.11784
H          H       0.59599   0.55246   0.74305   0.11527
H          H       0.36265   0.49344   0.55509   0.10888
H          H       0.42797   0.70802   0.68149   0.10720
H          H       0.55916   0.75839   0.73130   0.13701
H          H       0.61916   0.69896   0.73876   0.13182
H          H       0.56074   0.70967   0.77233   0.13215
H          H       0.44358   0.41724   0.54759   0.12703
H          H       0.51076   0.43618   0.61797   0.15292
H          H       0.53149   0.45373   0.56717   0.12616
H          H       0.30475   0.66213   0.62521   0.13358
H          H       0.27630   0.56977   0.58786   0.13452
H          H       0.29315   0.61735   0.55158   0.12865
H          H       0.92302   0.63409   0.67032   0.09698
H          H       0.77950   0.47873   0.50400   0.11076
H          H       0.68977   0.40474   0.50599   0.13324
H          H       0.64068   0.47248   0.50324   0.12653
H          H       0.65304   0.44142   0.55783   0.12397
H          H       0.95937   0.58686   0.58946   0.12895
H          H       0.89048   0.61025   0.54028   0.13490
H          H       0.90159   0.52148   0.52034   0.13034
H          H       0.80395   0.66634   0.73986   0.13143
H          H       0.89064   0.68567   0.74705   0.11857
H          H       0.86673   0.61436   0.75915   0.13622
H          H       0.82673   0.52260   0.80272   0.10393
H          H       0.53588   0.32209   0.85319   0.09368
H          H       0.53376   0.53975   0.94500   0.10945
H          H       0.60140   0.62807   0.94411   0.12716
H          H       0.61364   0.60013   0.87795   0.13744
H          H       0.68462   0.61142   0.94332   0.11828
H          H       0.59338   0.29020   0.78886   0.11343
H          H       0.68206   0.32506   0.83823   0.12552
H          H       0.64097   0.35533   0.78305   0.13675
H          H       0.44982   0.45097   0.93565   0.12969
H          H       0.50334   0.39439   0.95962   0.12369
H          H       0.43884   0.36179   0.88683   0.12698
H          H       0.04566   0.55504   0.98967   0.10190
H          H       0.97116   0.33749   0.87309   0.10006
H          H       0.86935   0.60588   0.94302   0.12919
H          H       0.94370   0.63393   0.93596   0.12101
H          H       0.95440   0.62908   0.00193   0.12448
H          H       0.12812   0.47407   0.99122   0.11996
H          H       0.10574   0.39599   0.92632   0.12798
H          H       0.08705   0.39448   0.98371   0.13168
H          H       0.78717   0.34751   0.82157   0.12592
H          H       0.85090   0.29442   0.81206   0.12037
H          H       0.82342   0.34781   0.77309   0.13677
H          H       0.21896   0.44527   0.20550   0.11882
H          H       0.21753   0.65360   0.21058   0.11833
H          H       0.10785   0.73385   0.05942   0.10950
H          H       0.97775   0.74058   0.14978   0.10579
H          H       0.06547   0.62171   0.21343   0.12886
H          H       0.97829   0.59318   0.15886   0.14057
H          H       0.00431   0.68014   0.21322   0.12304
H          H       0.17475   0.64184   0.04275   0.12692
H          H       0.17141   0.57387   0.06627   0.12440
H          H       0.22716   0.65546   0.11542   0.13533
H          H       0.03744   0.82583   0.07247   0.13081
H          H       0.00021   0.84176   0.12392   0.13433
H          H       0.95300   0.78038   0.05057   0.13634
H          H       0.98025   0.41029   0.18861   0.13020
H          H       0.97943   0.45819   0.14761   0.13060
H          H       0.05629   0.46973   0.20990   0.13188
H          H       0.96493   0.29069   0.12577   0.10512
H          H       0.11423   0.21863   0.05387   0.09996
H          H       0.18201   0.29795   0.04167   0.11956
H          H       0.23252   0.35375   0.11631   0.13256
H          H       0.17986   0.38930   0.06836   0.12983
H          H       0.96293   0.16826   0.08287   0.13078
H          H       0.04666   0.14504   0.09104   0.13103
H          H       0.98623   0.13975   0.02264   0.12977
H          H       0.32125   0.67547   0.26084   0.11832
H          H       0.29517   0.48650   0.28438   0.12028
H          H       0.47589   0.48179   0.49263   0.11070
H          H       0.45851   0.33943   0.32370   0.10195
H          H       0.38370   0.45300   0.24795   0.12648
H          H       0.38583   0.36442   0.23833   0.13198
H          H       0.46383   0.42148   0.26202   0.13781
H          H       0.39564   0.57262   0.48943   0.13065
H          H       0.39063   0.61388   0.44230   0.12170
H          H       0.47218   0.62017   0.49910   0.13157
H          H       0.50359   0.36216   0.47676   0.13059
H          H       0.56295   0.35942   0.44431   0.14004
H          H       0.48324   0.29926   0.40449   0.12707
H          H       0.52383   0.83455   0.30913   0.11651
H          H       0.45870   0.90341   0.44970   0.09817
H          H       0.52077   0.70562   0.25785   0.15088
H          H       0.46303   0.64435   0.25891   0.12985
H          H       0.42881   0.69866   0.22268   0.12509
H          H       0.34666   0.74196   0.39842   0.13328
H          H       0.38719   0.82497   0.45818   0.12226
H          H       0.42740   0.75029   0.45670   0.13416
H          H       0.50483   0.99014   0.42674   0.13014
H          H       0.52205   0.96313   0.36331   0.13777
H          H       0.58514   0.96240   0.42860   0.13640
H          H       0.31489   0.54470   0.78166   0.11778
H          H       0.10273   0.55969   0.75669   0.11475
H          H       0.05744   0.68875   0.94487   0.10870
H          H       0.99609   0.77651   0.81828   0.10670
H          H       0.07715   0.77701   0.76839   0.13673
H          H       0.13008   0.71049   0.76112   0.13183
H          H       0.03810   0.68716   0.72740   0.13159
H          H       0.14580   0.61975   0.95221   0.12768
H          H       0.14290   0.56847   0.88189   0.15265
H          H       0.21421   0.63708   0.93292   0.12631
H          H       0.92934   0.78717   0.87473   0.13329
H          H       0.93787   0.73172   0.91160   0.13468
H          H       0.99116   0.81557   0.94841   0.12914
H          H       0.50243   0.71360   0.82962   0.09686
H          H       0.52484   0.72635   0.99637   0.11157
H          H       0.43300   0.64844   0.99349   0.13325
H          H       0.38785   0.71983   0.99734   0.12731
H          H       0.34442   0.63467   0.94218   0.12349
H          H       0.61905   0.74908   0.91046   0.12850
H          H       0.59975   0.82082   0.96067   0.13562
H          H       0.63087   0.75103   0.97914   0.13072
H          H       0.31408   0.67608   0.75971   0.13093
H          H       0.39381   0.68786   0.75276   0.11846
H          H       0.35757   0.60465   0.74078   0.13526
H          H       0.27393   0.47007   0.69734   0.10480
H          H       0.93273   0.21868   0.64710   0.09280
H          H       0.83906   0.34361   0.55436   0.10868
H          H       0.90753   0.43262   0.55507   0.12681
H          H       0.98554   0.47148   0.62145   0.13715
H          H       0.99182   0.41695   0.55647   0.11839
H          H       0.05489   0.25142   0.71176   0.11403
H          H       0.09398   0.23673   0.66223   0.12575
H          H       0.10808   0.32233   0.71735   0.13692
H          H       0.76430   0.26426   0.56372   0.13029
H          H       0.79426   0.18381   0.54026   0.12369
H          H       0.80201   0.22435   0.61290   0.12796
H          H       0.30604   0.31545   0.51055   0.10131
H          H       0.34806   0.21422   0.62684   0.10008
H          H       0.17624   0.41262   0.55713   0.12940
H          H       0.25768   0.44805   0.56448   0.12159
H          H       0.20262   0.37722   0.49835   0.12478
H          H       0.38640   0.23233   0.50839   0.11982
H          H       0.43010   0.22085   0.57391   0.12776
H          H       0.35439   0.16071   0.51727   0.13165
H          H       0.21571   0.27579   0.67847   0.12580
H          H       0.28887   0.23210   0.68795   0.12050
H          H       0.30052   0.32451   0.72692   0.13698
H          H       0.26356   0.98970   0.29487   0.11891
H          H       0.25713   0.19296   0.28999   0.11788
H          H       0.29851   0.42435   0.44066   0.10927
H          H       0.07800   0.34061   0.35040   0.10585
H          H       0.10208   0.15804   0.28700   0.12912
H          H       0.06975   0.18411   0.34174   0.14108
H          H       0.04111   0.21670   0.28740   0.12338
H          H       0.38203   0.34904   0.45740   0.12700
H          H       0.35528   0.25759   0.43406   0.12407
H          H       0.36178   0.28974   0.38478   0.13541
H          H       0.21505   0.50316   0.42746   0.13086
H          H       0.12630   0.46761   0.37614   0.13468
H          H       0.15256   0.47986   0.44955   0.13686
H          H       0.04180   0.97116   0.31134   0.13028
H          H       0.08201   0.06014   0.35225   0.13061
H          H       0.09680   0.00910   0.29012   0.13148
H          H       0.08928   0.91419   0.37407   0.10624
H          H       0.31049   0.91454   0.44636   0.10098
H          H       0.39064   0.00603   0.45820   0.11965
H          H       0.36601   0.98773   0.38360   0.13224
H          H       0.36157   0.07103   0.43202   0.13008
H          H       0.13030   0.83501   0.41726   0.13062
H          H       0.20604   0.80380   0.40933   0.13071
H          H       0.21369   0.86707   0.47759   0.13014
H          H       0.30965   0.16470   0.23952   0.11786
H          H       0.26105   0.95219   0.21601   0.11993
H          H       0.23360   0.73922   0.00701   0.11005
H          H       0.38471   0.76565   0.17597   0.10143
H          H       0.38786   0.95588   0.25132   0.12691
H          H       0.39439   0.87720   0.26182   0.13179
H          H       0.45198   0.90579   0.23841   0.13627
H          H       0.15638   0.83301   0.01019   0.12995
H          H       0.19841   0.92146   0.05734   0.12096
H          H       0.22336   0.87085   0.00067   0.13087
H          H       0.27677   0.63534   0.02285   0.13074
H          H       0.36861   0.66493   0.05541   0.14113
H          H       0.32852   0.64458   0.09508   0.12796
H          H       0.46536   0.27449   0.19047   0.11547
H          H       0.25891   0.20469   0.05098   0.09827
H          H       0.51297   0.19668   0.24114   0.14902
H          H       0.45437   0.13421   0.24007   0.12992
H          H       0.45692   0.22480   0.27705   0.12527
H          H       0.19798   0.09423   0.10226   0.13317
H          H       0.17843   0.11775   0.04260   0.12185
H          H       0.21998   0.04438   0.04371   0.13398
H          H       0.32831   0.31385   0.07380   0.13000
H          H       0.40895   0.35012   0.13720   0.13771
H          H       0.40673   0.28425   0.07176   0.13622
H          H       0.79462   0.06443   0.28067   0.11865
H          H       0.80975   0.85196   0.25552   0.11469
H          H       0.93824   0.80788   0.44504   0.10839
H          H       0.02647   0.74607   0.31878   0.10788
H          H       0.02671   0.82685   0.26843   0.13675
H          H       0.95959   0.87902   0.26047   0.13195
H          H       0.93718   0.78688   0.22733   0.13170
H          H       0.86890   0.89569   0.45179   0.12711
H          H       0.81781   0.89294   0.38148   0.15196
H          H       0.88640   0.96421   0.43269   0.12529
H          H       0.03710   0.67972   0.37544   0.13333
H          H       0.98181   0.68839   0.41240   0.13436
H          H       0.06550   0.74194   0.44905   0.12870
H          H       0.96387   0.25210   0.32949   0.09727
H          H       0.97562   0.27462   0.49596   0.11146
H          H       0.89834   0.18287   0.49339   0.13290
H          H       0.96957   0.13759   0.49690   0.12661
H          H       0.88434   0.09420   0.44202   0.12310
H          H       0.99801   0.36936   0.41061   0.12887
H          H       0.07068   0.34908   0.45925   0.13491
H          H       0.00235   0.38038   0.47981   0.12955
H          H       0.92614   0.06355   0.25965   0.13105
H          H       0.93851   0.14321   0.25270   0.11862
H          H       0.85503   0.10731   0.24039   0.13546
H          H       0.72053   0.02332   0.19607   0.10439
H          H       0.46857   0.68193   0.14598   0.09373
H          H       0.59396   0.58860   0.05365   0.10872
H          H       0.68247   0.65720   0.05400   0.12722
H          H       0.72177   0.73462   0.12088   0.13725
H          H       0.66749   0.74198   0.05635   0.11867
H          H       0.50074   0.80392   0.21050   0.11320
H          H       0.48743   0.84404   0.16178   0.12657
H          H       0.57250   0.85703   0.21711   0.13656
H          H       0.51503   0.51367   0.06353   0.13009
H          H       0.43444   0.54309   0.03923   0.12371
H          H       0.47444   0.55155   0.11209   0.12776
H          H       0.56538   0.05598   0.01018   0.10279
H          H       0.46495   0.09917   0.12714   0.10053
H          H       0.66094   0.92491   0.05586   0.12920
H          H       0.69780   0.00628   0.06417   0.12180
H          H       0.62658   0.95248   0.99773   0.12469
H          H       0.48367   0.13783   0.00909   0.12015
H          H       0.47003   0.18006   0.07381   0.12765
H          H       0.41135   0.10404   0.01610   0.13213
H          H       0.53565   0.96977   0.18401   0.12656
H          H       0.47857   0.03217   0.18387   0.12074
H          H       0.57004   0.05970   0.22788   0.13686
H          H       0.24006   0.01389   0.79471   0.11827
H          H       0.44292   0.00695   0.78932   0.11757
H          H       0.67423   0.04814   0.93973   0.10968
H          H       0.59053   0.82751   0.84928   0.10575
H          H       0.40808   0.85139   0.78615   0.12868
H          H       0.43426   0.81899   0.84084   0.14093
H          H       0.46692   0.79059   0.78655   0.12405
H          H       0.59919   0.13161   0.95686   0.12696
H          H       0.50776   0.10504   0.93356   0.12461
H          H       0.53995   0.11152   0.88428   0.13500
H          H       0.75280   0.96448   0.92551   0.13058
H          H       0.71711   0.87550   0.87475   0.13423
H          H       0.73019   0.90257   0.94845   0.13684
H          H       0.22150   0.79160   0.81113   0.12957
H          H       0.31045   0.83168   0.85203   0.13060
H          H       0.25957   0.84641   0.78985   0.13077
H          H       0.16471   0.83913   0.87385   0.10579
H          H       0.16538   0.06050   0.94654   0.10081
H          H       0.25711   0.14056   0.95863   0.12006
H          H       0.23788   0.11639   0.88392   0.13240
H          H       0.32143   0.11152   0.93162   0.12939
H          H       0.08541   0.88005   0.91680   0.13099
H          H       0.05439   0.95593   0.90900   0.13111
H          H       0.11737   0.96339   0.97728   0.13008
H          H       0.41446   0.06023   0.73927   0.11810
H          H       0.20226   0.01036   0.71560   0.11964
H          H       0.98900   0.98345   0.50713   0.11078
H          H       0.01548   0.13438   0.67623   0.10142
H          H       0.20486   0.13611   0.75213   0.12681
H          H       0.12570   0.14607   0.76160   0.13217
H          H       0.15794   0.20165   0.73836   0.13728
H          H       0.08299   0.90635   0.51029   0.13023
H          H       0.17138   0.94867   0.55729   0.12163
H          H       0.12044   0.97342   0.50058   0.13117
H          H       0.88519   0.02649   0.52325   0.13032
H          H       0.91490   0.11830   0.55518   0.14094
H          H       0.89467   0.07904   0.59541   0.12762
H          H       0.52503   0.21508   0.69072   0.11792
H          H       0.45370   0.00902   0.55048   0.09745
H          H       0.44722   0.26320   0.74168   0.15063
H          H       0.38536   0.20441   0.74110   0.12987
H          H       0.47600   0.20680   0.77719   0.12557
H          H       0.34317   0.94863   0.60181   0.13324
H          H       0.36658   0.92899   0.54208   0.12224
H          H       0.29344   0.97084   0.54336   0.13371
H          H       0.56347   0.07779   0.57361   0.12962
H          H       0.59997   0.15844   0.63701   0.13764
H          H       0.53433   0.15640   0.57157   0.13655
C          C       0.85443   0.36977   0.05738  -0.02934
C          C       0.81885   0.39433   0.14159   0.07838
C          C       0.79901   0.46140   0.15914   0.03098
C          C       0.78076   0.48343   0.20654  -0.18563
C          C       0.78422   0.44360   0.23840   0.09660
C          C       0.80334   0.37722   0.21927  -0.17017
C          C       0.81990   0.35128   0.17121   0.01887
C          C       0.83391   0.27806   0.15136  -0.06245
C          C       0.77734   0.22374   0.10702   0.13737
C          C       0.78797   0.15417   0.08908  -0.23654
C          C       0.85336   0.13664   0.11467   0.17224
C          C       0.90760   0.19075   0.16025  -0.23996
C          C       0.89873   0.26121   0.17992   0.13242
C          C       0.95722   0.31579   0.23334  -0.42745
C          C       0.70489   0.24047   0.08353  -0.42818
C          C       0.86421   0.06144   0.09397  -0.42392
C          C       0.80091   0.51039   0.13199  -0.08128
C          C       0.84664   0.57605   0.16760   0.12897
C          C       0.84946   0.62235   0.14253  -0.22862
C          C       0.81002   0.60571   0.08325   0.17841
C          C       0.76287   0.54229   0.04960  -0.22301
C          C       0.75724   0.49457   0.07293   0.13620
C          C       0.70373   0.42821   0.03357  -0.42772
C          C       0.82049   0.65378   0.05671  -0.42134
C          C       0.89328   0.59743   0.23158  -0.41866
C          C       0.76675   0.46685   0.28960   0.07022
C          C       0.75695   0.53678   0.31464  -0.18827
C          C       0.73595   0.55891   0.36028   0.01737
C          C       0.72390   0.50823   0.37978   0.08831
C          C       0.73529   0.43861   0.35551   0.03002
C          C       0.75888   0.41749   0.31113  -0.38096
C          C       0.71630   0.38489   0.37332  -0.05543
C          C       0.64497   0.35883   0.35388   0.13182
C          C       0.62690   0.30717   0.36919  -0.24571
C          C       0.67779   0.28064   0.40351   0.16163
C          C       0.74837   0.30502   0.42033  -0.24028
C          C       0.76830   0.35590   0.40499   0.14334
C          C       0.84402   0.37692   0.41949  -0.42491
C          C       0.58883   0.38363   0.31446  -0.42811
C          C       0.65686   0.22736   0.42168  -0.42015
C          C       0.77753   0.68639   0.43051   0.13519
C          C       0.76229   0.75374   0.45399  -0.23807
C          C       0.69412   0.76743   0.43419   0.17221
C          C       0.64030   0.71192   0.38955  -0.23695
C          C       0.65330   0.64427   0.36497   0.13116
C          C       0.72269   0.63144   0.38565  -0.07065
C          C       0.85219   0.67464   0.45399  -0.42363
C          C       0.67695   0.83908   0.46058  -0.41762
C          C       0.59385   0.58604   0.31680  -0.42308
C          C       0.67392   0.56309   0.45500  -0.04182
C          C       0.69965   0.72033   0.54616  -0.01282
C          C       0.75765   0.84371   0.62287   0.09863
C          C       0.70958   0.87765   0.64470   0.03767
C          C       0.73336   0.94454   0.69001  -0.18538
C          C       0.80311   0.97914   0.71541   0.06822
C          C       0.84884   0.94416   0.69203  -0.18564
C          C       0.82774   0.87739   0.64631   0.03416
C          C       0.88182   0.84374   0.62775  -0.07716
C          C       0.90846   0.86791   0.59661   0.13126
C          C       0.96324   0.83907   0.58361  -0.23174
C          C       0.99266   0.78765   0.60151   0.17456
C          C       0.96652   0.76588   0.63378  -0.23199
C          C       0.91177   0.79329   0.64753   0.13992
C          C       0.88774   0.77172   0.68518  -0.42992
C          C       0.88087   0.92588   0.57942  -0.42605
C          C       0.05050   0.75560   0.58622  -0.42502
C          C       0.63597   0.84403   0.62267  -0.08103
C          C       0.62196   0.78816   0.63584   0.13548
C          C       0.68072   0.76260   0.67261  -0.42782
C          C       0.55203   0.75897   0.61673  -0.23181
C          C       0.49607   0.78576   0.58748   0.17436
C          C       0.51151   0.84225   0.57615  -0.23190
C          C       0.58042   0.87150   0.59260   0.13289
C          C       0.59384   0.93257   0.57939  -0.42215
C          C       0.42122   0.75597   0.57001  -0.42170
C          C       0.82713   0.04836   0.76496   0.06503
C          C       0.89171   0.08970   0.78334  -0.18576
C          C       0.91560   0.15521   0.83063   0.02779
C          C       0.87164   0.18225   0.85949   0.09728
C          C       0.80542   0.14265   0.84167   0.03451
C          C       0.78616   0.07598   0.79603  -0.18150
C          C       0.75442   0.17027   0.86671  -0.08159
C          C       0.76888   0.18632   0.92567   0.13619
C          C       0.71943   0.21368   0.94726  -0.23370
C          C       0.65503   0.22361   0.91183   0.18004
C          C       0.64016   0.20324   0.85280  -0.22979
C          C       0.68858   0.17795   0.82948   0.13631
C          C       0.66878   0.16410   0.76628  -0.43144
C          C       0.83523   0.17388   0.96642  -0.42646
C          C       0.60371   0.25713   0.93582  -0.43023
C          C       0.98786   0.19084   0.84976  -0.07478
C          C       0.00332   0.22140   0.81683   0.13295
C          C       0.07314   0.24988   0.83462  -0.23248
C          C       0.12797   0.24678   0.88277   0.17439
C          C       0.11150   0.21382   0.91344  -0.23455
C          C       0.04249   0.18586   0.89788   0.13926
C          C       0.94755   0.22206   0.76197  -0.42935
C          C       0.02677   0.14728   0.92964  -0.42784
C          C       0.20254   0.27820   0.90116  -0.42660
C          C       0.89367   0.29967   0.94478  -0.01303
C          C       0.62043   0.60491   0.55757  -0.03038
C          C       0.64462   0.56888   0.64149   0.07935
C          C       0.71161   0.54889   0.65910   0.03055
C          C       0.73334   0.53053   0.70644  -0.18494
C          C       0.69328   0.53417   0.73817   0.09701
C          C       0.62691   0.55315   0.71885  -0.17019
C          C       0.60120   0.56970   0.67078   0.01868
C          C       0.52798   0.58370   0.65085  -0.06198
C          C       0.47369   0.52707   0.60655   0.13705
C          C       0.40415   0.53765   0.58870  -0.23490
C          C       0.38660   0.60303   0.61440   0.17066
C          C       0.44068   0.65734   0.65991  -0.23871
C          C       0.51112   0.64853   0.67948   0.13215
C          C       0.56564   0.70715   0.73284  -0.42822
C          C       0.49051   0.45464   0.58302  -0.42787
C          C       0.31139   0.61375   0.59390  -0.42364
C          C       0.76063   0.55069   0.63195  -0.08018
C          C       0.82627   0.59639   0.66761   0.13005
C          C       0.87265   0.59915   0.64261  -0.22858
C          C       0.85617   0.55966   0.58338   0.17843
C          C       0.79275   0.51255   0.54967  -0.22480
C          C       0.74491   0.50698   0.57289   0.13603
C          C       0.67851   0.45355   0.53332  -0.42707
C          C       0.90459   0.56979   0.55703  -0.42161
C          C       0.84767   0.64318   0.73158  -0.41964
C          C       0.71672   0.51782   0.78987   0.07109
C          C       0.78733   0.51086   0.81633  -0.18886
C          C       0.80914   0.48730   0.86043   0.01646
C          C       0.75824   0.47234   0.87865   0.08652
C          C       0.68865   0.48443   0.85506   0.02923
C          C       0.66724   0.50789   0.81064  -0.38018
C          C       0.63524   0.46605   0.87336  -0.05570
C          C       0.60864   0.39478   0.85379   0.13239
C          C       0.55695   0.37717   0.86921  -0.24630
C          C       0.53084   0.42843   0.90368   0.16102
C          C       0.55548   0.49892   0.92035  -0.23956
C          C       0.60647   0.51842   0.90495   0.14231
C          C       0.62762   0.59398   0.91899  -0.42392
C          C       0.63262   0.33837   0.81385  -0.42733
C          C       0.47774   0.40794   0.92219  -0.41911
C          C       0.93665   0.52849   0.93050   0.13438
C          C       0.00371   0.51278   0.95401  -0.23658
C          C       0.01704   0.44445   0.93390   0.16986
C          C       0.96150   0.39097   0.88881  -0.23526
C          C       0.89411   0.40442   0.86418   0.13013
C          C       0.88161   0.47391   0.88539  -0.06950
C          C       0.92504   0.60321   0.95425  -0.42172
C          C       0.08839   0.42678   0.96033  -0.41786
C          C       0.83588   0.34538   0.81534  -0.42127
C          C       0.81196   0.42184   0.95383  -0.05024
C          C       0.96986   0.45000   0.04644  -0.01443
C          C       0.09352   0.50755   0.12260   0.10117
C          C       0.12736   0.45947   0.14447   0.03560
C          C       0.19421   0.48322   0.18977  -0.18427
C          C       0.22897   0.55294   0.21512   0.06646
C          C       0.19401   0.59872   0.19178  -0.18622
C          C       0.12726   0.57769   0.14608   0.03508
C          C       0.09375   0.63201   0.12773  -0.07970
C          C       0.11777   0.65858   0.09648   0.13349
C          C       0.08907   0.71349   0.08360  -0.23377
C          C       0.03784   0.74306   0.10169   0.17436
C          C       0.01615   0.71693   0.13400  -0.23353
C          C       0.04348   0.66208   0.14767   0.14137
C          C       0.02195   0.63792   0.18528  -0.42897
C          C       0.17540   0.63059   0.07898  -0.42720
C          C       0.00580   0.80098   0.08648  -0.42306
C          C       0.09367   0.38583   0.12245  -0.07903
C          C       0.03782   0.37175   0.13560   0.13406
C          C       0.01212   0.43052   0.17228  -0.42990
C          C       0.00874   0.30175   0.11654  -0.22996
C          C       0.03564   0.24578   0.08738   0.17353
C          C       0.09201   0.26128   0.07598  -0.23081
C          C       0.12109   0.33025   0.09234   0.13168
C          C       0.18196   0.34366   0.07894  -0.42186
C          C       0.00612   0.17087   0.07008  -0.42202
C          C       0.29821   0.57690   0.26464   0.06726
C          C       0.33976   0.64141   0.28307  -0.18719
C          C       0.40517   0.66529   0.33046   0.02810
C          C       0.43207   0.62128   0.35931   0.09568
C          C       0.39227   0.55515   0.34141   0.03461
C          C       0.32568   0.53597   0.29578  -0.18272
C          C       0.41968   0.50407   0.36639  -0.08025
C          C       0.43549   0.51858   0.42530   0.13547
C          C       0.46297   0.46922   0.44696  -0.23427
C          C       0.47324   0.40492   0.41162   0.18105
C          C       0.45301   0.38994   0.35258  -0.23102
C          C       0.42756   0.43830   0.32920   0.13633
C          C       0.41380   0.41870   0.26604  -0.43207
C          C       0.42257   0.58488   0.46579  -0.42735
C          C       0.50711   0.35380   0.43572  -0.42993
C          C       0.44076   0.73757   0.34957  -0.07414
C          C       0.47102   0.75306   0.31647   0.13245
C          C       0.49946   0.82292   0.33424  -0.23319
C          C       0.49668   0.87774   0.38256   0.17426
C          C       0.46387   0.86127   0.41332  -0.23416
C          C       0.43588   0.79224   0.39775   0.13885
C          C       0.47136   0.69729   0.26145  -0.42944
C          C       0.39727   0.77660   0.42952  -0.42824
C          C       0.52848   0.95228   0.40114  -0.42627
C          C       0.54957   0.64253   0.44423  -0.01180
C          C       0.31203   0.79766   0.94267  -0.03014
C          C       0.25288   0.67758   0.85856   0.07949
C          C       0.30226   0.64002   0.84094   0.03011
C          C       0.27670   0.57431   0.79359  -0.18526
C          C       0.20497   0.54616   0.76183   0.09732
C          C       0.15786   0.58454   0.78101  -0.17075
C          C       0.18019   0.64914   0.82912   0.01925
C          C       0.12682   0.68299   0.84896  -0.06322
C          C       0.11691   0.67072   0.89330   0.13643
C          C       0.06524   0.69917   0.91117  -0.23345
C          C       0.02191   0.73875   0.88544   0.17101
C          C       0.03037   0.74743   0.83986  -0.23896
C          C       0.08125   0.71907   0.82028   0.13260
C          C       0.08235   0.72429   0.76692  -0.42749
C          C       0.15736   0.62189   0.91686  -0.42811
C          C       0.96714   0.76987   0.90592  -0.42419
C          C       0.37836   0.66897   0.86806  -0.08147
C          C       0.40839   0.67871   0.83234   0.13051
C          C       0.47973   0.70662   0.85739  -0.22983
C          C       0.52233   0.72696   0.91673   0.17957
C          C       0.49255   0.71396   0.95056  -0.22421
C          C       0.42159   0.68475   0.92722   0.13660
C          C       0.39477   0.67074   0.96672  -0.42743
C          C       0.59703   0.76357   0.94307  -0.42245
C          C       0.36607   0.66111   0.76825  -0.41849
C          C       0.17683   0.47796   0.71026   0.07129
C          C       0.22102   0.44452   0.68384  -0.19036
C          C       0.19878   0.37678   0.63979   0.01889
C          C       0.12969   0.34360   0.62161   0.08490
C          C       0.08373   0.37925   0.64525   0.03038
C          C       0.10663   0.44717   0.68961  -0.38080
C          C       0.01209   0.34243   0.62697  -0.05382
C          C       0.00501   0.29083   0.64662   0.12967
C          C       0.93787   0.25762   0.63100  -0.24329
C          C       0.87734   0.27408   0.59620   0.16042
C          C       0.88537   0.32769   0.57933  -0.23871
C          C       0.95176   0.36279   0.59497   0.14105
C          C       0.95884   0.42400   0.58056  -0.42334
C          C       0.06895   0.27449   0.68663  -0.42691
C          C       0.80575   0.23492   0.57752  -0.42091
C          C       0.25620   0.34794   0.56971   0.13499
C          C       0.29977   0.30877   0.54617  -0.23666
C          C       0.33323   0.26052   0.56617   0.17117
C          C       0.32272   0.25203   0.61119  -0.23654
C          C       0.27999   0.29008   0.63587   0.13090
C          C       0.24628   0.33844   0.61479  -0.07054
C          C       0.22081   0.39891   0.54601  -0.42347
C          C       0.37838   0.21660   0.53989  -0.41794
C          C       0.27064   0.27982   0.68469  -0.42139
C          C       0.10772   0.21786   0.54637  -0.05184
C          C       0.17287   0.15340   0.45374  -0.01354
C          C       0.22085   0.13482   0.37784   0.10057
C          C       0.23291   0.06488   0.35590   0.03678
C          C       0.25446   0.04335   0.31059  -0.18549
C          C       0.26373   0.08769   0.28519   0.06699
C          C       0.25218   0.15682   0.30867  -0.18525
C          C       0.23119   0.18151   0.35442   0.03318
C          C       0.21608   0.25421   0.37277  -0.07658
C          C       0.27136   0.31202   0.40384   0.13233
C          C       0.25554   0.37982   0.41657  -0.23245
C          C       0.18621   0.39124   0.39846   0.17416
C          C       0.13219   0.33279   0.36625  -0.23281
C          C       0.14585   0.26428   0.35276   0.13980
C          C       0.08678   0.20243   0.31523  -0.42990
C          C       0.34647   0.30150   0.42125  -0.42765
C          C       0.16938   0.46438   0.41358  -0.42409
C          C       0.22133   0.01319   0.37785  -0.08179
C          C       0.15235   0.98575   0.36453   0.13572
C          C       0.09003   0.00772   0.32771  -0.42887
C          C       0.14231   0.93472   0.38348  -0.23302
C          C       0.19842   0.90807   0.41273   0.17548
C          C       0.26621   0.93511   0.42423  -0.23376
C          C       0.27891   0.98778   0.40794   0.13476
C          C       0.35310   0.01473   0.42119  -0.42220
C          C       0.18627   0.85054   0.43013  -0.42203
C          C       0.28332   0.06223   0.23558   0.06666
C          C       0.30609   0.10844   0.21710  -0.18621
C          C       0.32416   0.08508   0.16971   0.02853
C          C       0.32229   0.01221   0.14078   0.09553
C          C       0.30064   0.96381   0.15866   0.03545
C          C       0.27992   0.99020   0.20446  -0.18339
C          C       0.30319   0.88774   0.13353  -0.08241
C          C       0.26032   0.84330   0.07452   0.13619
C          C       0.26617   0.77226   0.05276  -0.23338
C          C       0.31162   0.74320   0.08807   0.18070
C          C       0.35031   0.78728   0.14712  -0.23003
C          C       0.34823   0.85904   0.17060   0.13689
C          C       0.39752   0.90228   0.23387  -0.43070
C          C       0.20694   0.86897   0.03394  -0.42547
C          C       0.32131   0.66794   0.06392  -0.43236
C          C       0.34082   0.13825   0.15061  -0.07586
C          C       0.40457   0.18625   0.18335   0.13382
C          C       0.41553   0.23830   0.16563  -0.23309
C          C       0.36427   0.24535   0.11769   0.17502
C          C       0.30042   0.19855   0.08715  -0.23478
C          C       0.28775   0.14509   0.10264   0.14009
C          C       0.46017   0.18485   0.23794  -0.42951
C          C       0.21724   0.09790   0.07106  -0.42746
C          C       0.37756   0.30146   0.09927  -0.42610
C          C       0.35421   0.94952   0.05525  -0.01493
C          C       0.04660   0.06202   0.44253  -0.02999
C          C       0.92691   0.00243   0.35816   0.07972
C          C       0.88956   0.05186   0.34043   0.03207
C          C       0.82415   0.02625   0.29275  -0.18586
C          C       0.79618   0.95443   0.26083   0.09625
C          C       0.83436   0.90722   0.28004  -0.16881
C          C       0.89857   0.92967   0.32854   0.01786
C          C       0.93234   0.87645   0.34862  -0.06324
C          C       0.92009   0.86687   0.39309   0.13720
C          C       0.94870   0.81545   0.41127  -0.23552
C          C       0.98847   0.77212   0.38578   0.17157
C          C       0.99718   0.78032   0.34012  -0.24011
C          C       0.96861   0.83087   0.32018   0.13265
C          C       0.97387   0.83161   0.26671  -0.42778
C          C       0.87116   0.90733   0.41651  -0.42573
C          C       0.01981   0.71764   0.40658  -0.42350
C          C       0.91854   0.12801   0.36768  -0.08084
C          C       0.92862   0.15806   0.33207   0.12966
C          C       0.95662   0.22941   0.35718  -0.22884
C          C       0.97671   0.27209   0.41648   0.17836
C          C       0.96341   0.24231   0.45019  -0.22414
C          C       0.93423   0.17129   0.42682   0.13545
C          C       0.92040   0.14456   0.46643  -0.42629
C          C       0.01353   0.34675   0.44287  -0.42016
C          C       0.91138   0.11564   0.26805  -0.41887
C          C       0.72814   0.92633   0.20916   0.07079
C          C       0.69470   0.97059   0.18281  -0.18894
C          C       0.62661   0.94870   0.13937   0.01734
C          C       0.59324   0.87968   0.12137   0.08575
C          C       0.62913   0.83340   0.14453   0.02806
C          C       0.69722   0.85618   0.18856  -0.37962
C          C       0.59244   0.76166   0.12620  -0.05459
C          C       0.54076   0.75444   0.14572   0.13135
C          C       0.50761   0.68721   0.13002  -0.24639
C          C       0.52427   0.62671   0.09533   0.16187
C          C       0.57793   0.63487   0.07858  -0.23937
C          C       0.61295   0.70135   0.09426   0.14180
C          C       0.67422   0.70847   0.07996  -0.42344
C          C       0.52449   0.81831   0.18591  -0.42740
C          C       0.48534   0.55502   0.07677  -0.42076
C          C       0.59762   0.00604   0.06930   0.13400
C          C       0.55882   0.04990   0.04592  -0.23905
C          C       0.51091   0.08378   0.06619   0.17178
C          C       0.50254   0.07354   0.11133  -0.23542
C          C       0.54040   0.03066   0.13599   0.12891
C          C       0.58829   0.99642   0.11459  -0.06888
C          C       0.64815   0.97005   0.04532  -0.42271
C          C       0.46701   0.12882   0.03977  -0.41840
C          C       0.53037   0.02230   0.18529  -0.42085
C          C       0.46738   0.85887   0.04682  -0.04987
C          C       0.40362   0.92353   0.95369  -0.01335
C          C       0.38499   0.97061   0.87727   0.10111
C          C       0.31512   0.98280   0.85551   0.03648
C          C       0.29357   0.00447   0.81027  -0.18375
C          C       0.33781   0.01363   0.78477   0.06663
C          C       0.40687   0.00192   0.80805  -0.18523
C          C       0.43158   0.98082   0.85375   0.03475
C          C       0.50422   0.96564   0.87207  -0.07882
C          C       0.56201   0.02096   0.90315   0.13256
C          C       0.62974   0.00513   0.91572  -0.23301
C          C       0.64115   0.93576   0.89743   0.17565
C          C       0.58274   0.88172   0.86528  -0.23398
C          C       0.51427   0.89537   0.85195   0.14025
C          C       0.45252   0.83619   0.81438  -0.42927
C          C       0.55161   0.09615   0.92070  -0.42758
C          C       0.71422   0.91893   0.91220  -0.42397
C          C       0.26359   0.97125   0.87759  -0.08141
C          C       0.23619   0.90221   0.86426   0.13579
C          C       0.25811   0.83980   0.82747  -0.42781
C          C       0.18523   0.89219   0.88327  -0.23241
C          C       0.15866   0.94833   0.91261   0.17544
C          C       0.18579   0.01616   0.92425  -0.23253
C          C       0.23834   0.02887   0.90785   0.13286
C          C       0.26529   0.10316   0.92126  -0.42150
C          C       0.10102   0.93608   0.92982  -0.42303
C          C       0.31217   0.03334   0.73523   0.06664
C          C       0.35821   0.05654   0.71685  -0.18577
C          C       0.33468   0.07479   0.66955   0.02746
C          C       0.26180   0.07282   0.64073   0.09629
C          C       0.21358   0.05077   0.65858   0.03540
C          C       0.24012   0.02968   0.70416  -0.18227
C          C       0.13752   0.05320   0.63356  -0.08052
C          C       0.09310   0.01030   0.57456   0.13559
C          C       0.02207   0.01609   0.55286  -0.23436
C          C       0.99309   0.06154   0.58825   0.18105
C          C       0.03713   0.10013   0.64732  -0.23129
C          C       0.10886   0.09810   0.67075   0.13656
C          C       0.15211   0.14735   0.73404  -0.43180
C          C       0.11880   0.95701   0.53393  -0.42691
C          C       0.91789   0.07127   0.56410  -0.43096
C          C       0.38781   0.09140   0.65040  -0.07423
C          C       0.43633   0.15481   0.68341   0.13145
C          C       0.48843   0.16549   0.66567  -0.23346
C          C       0.49507   0.11424   0.61748   0.17341
C          C       0.44785   0.05063   0.58677  -0.23318
C          C       0.39431   0.03827   0.60226   0.13919
C          C       0.43561   0.21027   0.73838  -0.42964
C          C       0.34688   0.96789   0.57063  -0.42810
C          C       0.55128   0.12720   0.59908  -0.42592
C          C       0.19834   0.10486   0.55542  -0.01261
N          N       0.83852   0.37284   0.09540  -0.02751
N          N       0.69790   0.53051   0.42220  -0.01362
N          N       0.73429   0.77648   0.57924  -0.02909
N          N       0.89171   0.24775   0.90539  -0.03394
N          N       0.62359   0.58884   0.59552  -0.02730
N          N       0.78050   0.44466   0.91980  -0.01010
N          N       0.02626   0.48426   0.07913  -0.03010
N          N       0.49760   0.64099   0.40514  -0.03240
N          N       0.27768   0.74348   0.90463  -0.02741
N          N       0.11067   0.27483   0.58041  -0.00924
N          N       0.19689   0.15496   0.42124  -0.02952
N          N       0.34183   0.98644   0.09485  -0.03342
N          N       0.99267   0.02723   0.40443  -0.02861
N          N       0.52418   0.86112   0.08071  -0.01063
N          N       0.40527   0.94692   0.92083  -0.03057
N          N       0.23571   0.09247   0.59487  -0.03329

