data_crystal

_audit_creation_method 'AiiDA-DDEC plugin'

_cell_length_a        34.62299
_cell_length_b        34.62301
_cell_length_c        34.62295

_cell_angle_alpha     59.96390
_cell_angle_beta     59.96449
_cell_angle_gamma     59.96454

_symmetry_space_group_name_Hall 'P 1'
_symmetry_space_group_name_H-M  'P 1'

loop_
_symmetry_equiv_pos_as_xyz
 'x,y,z'

loop_
_atom_site_label
_atom_site_type_symbol
_atom_site_fract_x
_atom_site_fract_y
_atom_site_fract_z
_atom_site_charge
Cd         Cd      0.92757   0.52584   0.47421   1.08765
Cd         Cd      0.42759   0.97416   0.02589   1.08776
Cd         Cd      0.07248   0.52575   0.92769   1.08771
Cd         Cd      0.97417   0.02588   0.42760   1.08776
Cd         Cd      0.92752   0.47425   0.07231   1.08771
Cd         Cd      0.97412   0.57241   0.02583   1.08779
Cd         Cd      0.52575   0.92768   0.07249   1.08771
Cd         Cd      0.57228   0.97421   0.42754   1.08784
Cd         Cd      0.57241   0.02584   0.97412   1.08791
Cd         Cd      0.47417   0.52578   0.07244   1.08772
Cd         Cd      0.07232   0.92751   0.47426   1.08772
Cd         Cd      0.47421   0.92757   0.52583   1.08763
Cd         Cd      0.42772   0.02579   0.57246   1.08776
Cd         Cd      0.52583   0.47421   0.92756   1.08751
Cd         Cd      0.52579   0.07243   0.47417   1.08773
Cd         Cd      0.97421   0.42754   0.57229   1.08803
Cd         Cd      0.47425   0.07232   0.92751   1.08775
Cd         Cd      0.02580   0.57246   0.42771   1.08777
Cd         Cd      0.02583   0.97412   0.57241   1.08790
Cd         Cd      0.42755   0.57228   0.97421   1.08784
Cd         Cd      0.07244   0.47416   0.52579   1.08767
Cd         Cd      0.02588   0.42759   0.97417   1.08783
Cd         Cd      0.92769   0.07249   0.52574   1.08757
Cd         Cd      0.57246   0.42772   0.02579   1.08781
H          H       0.31294   0.55298   0.17615   0.11414
H          H       0.00425   0.20561   0.56051   0.10751
H          H       0.42770   0.28216   0.19526   0.12357
H          H       0.90511   0.57232   0.80472   0.12363
H          H       0.07233   0.40510   0.30471   0.12346
H          H       0.93954   0.49571   0.27034   0.10357
H          H       0.81203   0.87329   0.54054   0.11397
H          H       0.95127   0.66399   0.46060   0.11496
H          H       0.95778   0.55295   0.31311   0.11439
H          H       0.42768   0.19529   0.09489   0.12355
H          H       0.77465   0.89761   0.32880   0.12031
H          H       0.22216   0.37169   0.04391   0.11694
H          H       0.13770   0.27782   0.12824   0.11696
H          H       0.33602   0.53939   0.04873   0.11478
H          H       0.20557   0.00428   0.22966   0.10776
H          H       0.40510   0.07232   0.21782   0.12352
H          H       0.50424   0.06049   0.70565   0.10773
H          H       0.56530   0.73779   0.14221   0.11748
H          H       0.94508   0.35072   0.88760   0.11628
H          H       0.29401   0.99387   0.46017   0.08072
H          H       0.29407   0.25195   0.99387   0.08062
H          H       0.27464   0.49898   0.82878   0.12025
H          H       0.50106   0.72540   0.60242   0.12011
H          H       0.04225   0.68691   0.82379   0.11455
H          H       0.46021   0.25192   0.29406   0.08104
H          H       0.50616   0.03980   0.24813   0.08058
H          H       0.72541   0.60243   0.50106   0.12011
H          H       0.25193   0.29406   0.46021   0.08103
H          H       0.27415   0.37332   0.04047   0.11395
H          H       0.04222   0.44705   0.68689   0.11456
H          H       0.50525   0.62503   0.08824   0.09772
H          H       0.12497   0.58818   0.28150   0.09796
H          H       0.90341   0.32893   0.27278   0.08453
H          H       0.05294   0.45777   0.81313   0.11475
H          H       0.49897   0.39762   0.82878   0.12029
H          H       0.07577   0.33604   0.04877   0.11469
H          H       0.68342   0.61247   0.55498   0.11618
H          H       0.19529   0.09489   0.42768   0.12360
H          H       0.28156   0.00520   0.12503   0.09920
H          H       0.09489   0.28218   0.42769   0.12337
H          H       0.77048   0.43950   0.79451   0.10396
H          H       0.79406   0.49387   0.75195   0.08091
H          H       0.50147   0.03926   0.30105   0.08896
H          H       0.27273   0.32887   0.49499   0.08481
H          H       0.49894   0.27460   0.39758   0.12046
H          H       0.87503   0.41182   0.71850   0.09804
H          H       0.96059   0.16396   0.45125   0.11483
H          H       0.60238   0.72536   0.17119   0.12055
H          H       0.05471   0.06537   0.23783   0.11769
H          H       0.78216   0.92768   0.69527   0.12373
H          H       0.75193   0.96021   0.79406   0.08057
H          H       0.03982   0.50613   0.20599   0.08044
H          H       0.87332   0.77414   0.54047   0.11387
H          H       0.94529   0.93463   0.76217   0.11756
H          H       0.45614   0.13776   0.12829   0.11715
H          H       0.72536   0.50102   0.17123   0.12037
H          H       0.06531   0.64222   0.23778   0.11774
H          H       0.50519   0.78157   0.62503   0.10013
H          H       0.27048   0.29446   0.93952   0.10771
H          H       0.14214   0.73782   0.55466   0.11758
H          H       0.49854   0.96074   0.69895   0.08875
H          H       0.15825   0.03930   0.50154   0.08910
H          H       0.08826   0.78155   0.50515   0.09912
H          H       0.71846   0.41174   0.99484   0.09896
H          H       0.57571   0.83600   0.03947   0.11469
H          H       0.88760   0.94507   0.35072   0.11639
H          H       0.04054   0.37330   0.31202   0.11399
H          H       0.68706   0.44702   0.82385   0.11397
H          H       0.14931   0.61238   0.68336   0.11641
H          H       0.05465   0.23781   0.64215   0.11762
H          H       0.34180   0.19903   0.99851   0.08914
H          H       0.21787   0.30477   0.40517   0.12418
H          H       0.36225   0.22215   0.04388   0.11709
H          H       0.72215   0.54390   0.87170   0.11676
H          H       0.30471   0.07232   0.40510   0.12356
H          H       0.55298   0.17615   0.31294   0.11422
H          H       0.68336   0.14931   0.61239   0.11636
H          H       0.99855   0.19894   0.46074   0.08891
H          H       0.37503   0.21850   0.91182   0.09805
H          H       0.00149   0.65820   0.80097   0.08923
H          H       0.54387   0.86224   0.87172   0.11706
H          H       0.00516   0.28154   0.58826   0.09904
H          H       0.76217   0.94529   0.93463   0.11778
H          H       0.77273   0.99500   0.82887   0.08409
H          H       0.13776   0.12829   0.45613   0.11710
H          H       0.85069   0.38762   0.31664   0.11657
H          H       0.49850   0.69904   0.84181   0.08909
H          H       0.93952   0.27048   0.29447   0.10757
H          H       0.42429   0.16400   0.96053   0.11469
H          H       0.37174   0.22219   0.36230   0.11703
H          H       0.95781   0.17622   0.55299   0.11465
H          H       0.94535   0.76219   0.35785   0.11742
H          H       0.49475   0.37497   0.91176   0.09790
H          H       0.77460   0.99895   0.89757   0.12033
H          H       0.77785   0.95612   0.63775   0.11699
H          H       0.37171   0.36224   0.04388   0.11706
H          H       0.55298   0.95781   0.17622   0.11501
H          H       0.84178   0.69900   0.96076   0.08913
H          H       0.53983   0.70599   0.00613   0.08077
H          H       0.32888   0.90336   0.49500   0.08356
H          H       0.05297   0.67622   0.45780   0.11489
H          H       0.45953   0.12667   0.22586   0.11386
H          H       0.33598   0.07576   0.53946   0.11478
H          H       0.67124   0.00101   0.22535   0.12046
H          H       0.00105   0.10243   0.22540   0.12036
H          H       0.82888   0.99501   0.40335   0.08327
H          H       0.38762   0.31664   0.85069   0.11646
H          H       0.69527   0.78216   0.92769   0.12353
H          H       0.54047   0.87332   0.77414   0.11409
H          H       0.99484   0.71846   0.41174   0.09916
H          H       0.62503   0.50519   0.78157   0.10035
H          H       0.45780   0.05297   0.67622   0.11492
H          H       0.79405   0.75192   0.96022   0.08080
H          H       0.43952   0.77033   0.99569   0.10801
H          H       0.62826   0.77781   0.63770   0.11697
H          H       0.65820   0.80097   0.00149   0.08904
H          H       0.63771   0.62825   0.77782   0.11698
H          H       0.74805   0.00613   0.70593   0.08083
H          H       0.12668   0.22586   0.45953   0.11396
H          H       0.55494   0.14925   0.68339   0.11621
H          H       0.61246   0.55498   0.68342   0.11617
H          H       0.70565   0.50424   0.06049   0.10779
H          H       0.62498   0.78150   0.08818   0.09804
H          H       0.66396   0.95123   0.92423   0.11466
H          H       0.30100   0.03924   0.15822   0.08899
H          H       0.23781   0.64216   0.05465   0.11765
H          H       0.68339   0.55494   0.14925   0.11608
H          H       0.69529   0.92767   0.59490   0.12358
H          H       0.06046   0.50429   0.72967   0.10345
H          H       0.77782   0.63770   0.62826   0.11710
H          H       0.17112   0.22728   0.00498   0.08407
H          H       0.67113   0.50500   0.72728   0.08420
H          H       0.78218   0.59490   0.92768   0.12336
H          H       0.96018   0.49387   0.79401   0.08024
H          H       0.49386   0.75195   0.79407   0.08056
H          H       0.95120   0.46054   0.92411   0.11534
H          H       0.04873   0.33601   0.53940   0.11479
H          H       0.77275   0.40333   0.99502   0.08432
H          H       0.53980   0.74807   0.70594   0.08078
H          H       0.59668   0.00497   0.22725   0.08408
H          H       0.27419   0.31207   0.37336   0.11394
H          H       0.38754   0.44502   0.31658   0.11631
H          H       0.64218   0.06535   0.05468   0.11750
H          H       0.99474   0.41176   0.87498   0.09804
H          H       0.93469   0.35778   0.76222   0.11838
H          H       0.46060   0.95127   0.66398   0.11471
H          H       0.99895   0.89757   0.77460   0.12054
H          H       0.00498   0.59666   0.17112   0.08277
H          H       0.21845   0.49485   0.91174   0.09913
H          H       0.20594   0.50613   0.24805   0.08114
H          H       0.49576   0.93951   0.29435   0.10768
H          H       0.07231   0.30473   0.21784   0.12359
H          H       0.04046   0.27415   0.37333   0.11384
H          H       0.77414   0.54047   0.87332   0.11408
H          H       0.82379   0.04225   0.68691   0.11449
H          H       0.30473   0.21784   0.07232   0.12352
H          H       0.03942   0.83604   0.54875   0.11469
H          H       0.19899   0.34177   0.46076   0.08909
H          H       0.81311   0.45774   0.67622   0.11455
H          H       0.18797   0.12671   0.45946   0.11455
H          H       0.40510   0.30471   0.07233   0.12360
H          H       0.45118   0.42417   0.96053   0.11550
H          H       0.55498   0.68342   0.61246   0.11629
H          H       0.27785   0.45610   0.12830   0.11706
H          H       0.50428   0.70560   0.72965   0.10748
H          H       0.54875   0.03941   0.83604   0.11472
H          H       0.17123   0.50103   0.60238   0.12040
H          H       0.32378   0.54220   0.94703   0.11486
H          H       0.62830   0.63776   0.95612   0.11715
H          H       0.00614   0.70593   0.74805   0.08057
H          H       0.81659   0.94503   0.88753   0.11635
H          H       0.11239   0.64932   0.18335   0.11655
H          H       0.46076   0.19899   0.34177   0.08912
H          H       0.28214   0.09482   0.19523   0.12422
H          H       0.20550   0.22952   0.56050   0.10349
H          H       0.32880   0.77464   0.89762   0.12032
H          H       0.96076   0.84178   0.69900   0.08890
H          H       0.81665   0.88761   0.35068   0.11672
H          H       0.62831   0.95609   0.77784   0.11714
H          H       0.43470   0.26221   0.85779   0.11775
H          H       0.95947   0.62670   0.68798   0.11411
H          H       0.87498   0.71843   0.99481   0.10034
H          H       0.17622   0.55298   0.95781   0.11476
H          H       0.28154   0.58826   0.00516   0.09914
H          H       0.49572   0.29439   0.27035   0.10351
H          H       0.09663   0.50501   0.67112   0.08367
H          H       0.59490   0.92768   0.78218   0.12343
H          H       0.88761   0.35068   0.81665   0.11667
H          H       0.19903   0.99852   0.34179   0.08911
H          H       0.31309   0.17621   0.95775   0.11449
H          H       0.74808   0.70594   0.53979   0.08059
H          H       0.56050   0.20549   0.22952   0.10791
H          H       0.72582   0.68793   0.62664   0.11375
H          H       0.70554   0.06048   0.72952   0.10786
H          H       0.57232   0.80471   0.90511   0.12377
H          H       0.44507   0.38760   0.85073   0.11644
H          H       0.28217   0.19526   0.42769   0.12359
H          H       0.16394   0.42429   0.45121   0.11460
H          H       0.22585   0.18797   0.45950   0.11405
H          H       0.05468   0.64218   0.06535   0.11745
H          H       0.18793   0.22582   0.12664   0.11384
H          H       0.29435   0.49576   0.93951   0.10759
H          H       0.12665   0.18792   0.22582   0.11376
H          H       0.22727   0.00500   0.17113   0.08416
H          H       0.30104   0.50147   0.03927   0.08901
H          H       0.70594   0.74805   0.00613   0.08088
H          H       0.17108   0.59661   0.22721   0.08536
H          H       0.45613   0.27785   0.13774   0.11698
H          H       0.44705   0.68688   0.04222   0.11482
H          H       0.94704   0.18704   0.32385   0.11403
H          H       0.12503   0.00526   0.58824   0.09786
H          H       0.22725   0.59667   0.00498   0.08409
H          H       0.22540   0.00105   0.10243   0.12032
H          H       0.78155   0.50515   0.08826   0.09935
H          H       0.32385   0.94703   0.18704   0.11402
H          H       0.54050   0.77415   0.81203   0.11408
H          H       0.04391   0.22216   0.37170   0.11692
H          H       0.99898   0.32877   0.89761   0.12045
H          H       0.46055   0.92411   0.95120   0.11525
H          H       0.07577   0.53945   0.33597   0.11483
H          H       0.70599   0.00613   0.53983   0.08090
H          H       0.34174   0.99849   0.46070   0.08919
H          H       0.29405   0.46021   0.25192   0.08091
H          H       0.73779   0.14221   0.56530   0.11757
H          H       0.55296   0.31311   0.95778   0.11455
H          H       0.10239   0.00102   0.67124   0.12035
H          H       0.43464   0.44528   0.26215   0.11779
H          H       0.58826   0.00516   0.28154   0.09909
H          H       0.31202   0.04054   0.37329   0.11390
H          H       0.93463   0.76216   0.94529   0.11782
H          H       0.68798   0.95946   0.62671   0.11417
H          H       0.22966   0.00432   0.56048   0.10805
H          H       0.77418   0.87335   0.81207   0.11397
H          H       0.39762   0.27464   0.82881   0.12033
H          H       0.31202   0.27416   0.04050   0.11406
H          H       0.11247   0.18341   0.05497   0.11617
H          H       0.50500   0.67112   0.09664   0.08365
H          H       0.18687   0.94706   0.54223   0.11483
H          H       0.64932   0.18335   0.11239   0.11651
H          H       0.92768   0.59490   0.69529   0.12335
H          H       0.35072   0.88759   0.94508   0.11646
H          H       0.00101   0.22535   0.67123   0.12044
H          H       0.71850   0.87503   0.41182   0.09775
H          H       0.22953   0.56050   0.20550   0.10349
H          H       0.49387   0.79401   0.96018   0.08045
H          H       0.93466   0.94532   0.35782   0.11766
H          H       0.49846   0.84174   0.96071   0.08927
H          H       0.32888   0.49500   0.27273   0.08471
H          H       0.72215   0.86225   0.54388   0.11705
H          H       0.20595   0.24808   0.03979   0.08060
H          H       0.55472   0.73784   0.56536   0.11763
H          H       0.50500   0.09666   0.72724   0.08406
H          H       0.03929   0.50153   0.15826   0.08919
H          H       0.68793   0.62664   0.72581   0.11382
H          H       0.60242   0.50106   0.72541   0.12037
H          H       0.82378   0.44702   0.04219   0.11482
H          H       0.11240   0.05492   0.64929   0.11658
H          H       0.43950   0.79451   0.77048   0.10787
H          H       0.08824   0.50525   0.62503   0.09788
H          H       0.96071   0.49847   0.84174   0.08932
H          H       0.90518   0.80477   0.71786   0.12405
H          H       0.94706   0.54223   0.18687   0.11476
H          H       0.15823   0.30100   0.03924   0.08897
H          H       0.45950   0.22585   0.18797   0.11408
H          H       0.75187   0.49384   0.96019   0.08084
H          H       0.35778   0.76222   0.93470   0.11830
H          H       0.89761   0.99898   0.32877   0.12023
H          H       0.62668   0.95953   0.72585   0.11386
H          H       0.08818   0.62497   0.78151   0.09804
H          H       0.71786   0.90517   0.80477   0.12395
H          H       0.76222   0.93469   0.35778   0.11817
H          H       0.31661   0.44506   0.85075   0.11630
H          H       0.46019   0.99384   0.25187   0.08075
H          H       0.33604   0.04877   0.07577   0.11474
H          H       0.09489   0.42768   0.19529   0.12363
H          H       0.72584   0.95950   0.68798   0.11399
H          H       0.79450   0.77047   0.43951   0.10765
H          H       0.16400   0.96052   0.42430   0.11462
H          H       0.41182   0.71850   0.87503   0.09788
H          H       0.30096   0.15820   0.50150   0.08909
H          H       0.40333   0.99503   0.77275   0.08419
H          H       0.68691   0.82378   0.04225   0.11464
H          H       0.09660   0.67107   0.72722   0.08449
H          H       0.77034   0.99568   0.43952   0.10430
H          H       0.39762   0.82877   0.49897   0.12043
H          H       0.27275   0.49501   0.90335   0.08410
H          H       0.17112   0.00499   0.59666   0.08304
H          H       0.49570   0.27034   0.93954   0.10349
H          H       0.81662   0.35074   0.94507   0.11707
H          H       0.18690   0.54226   0.32378   0.11451
H          H       0.12829   0.45613   0.13776   0.11717
H          H       0.94503   0.88753   0.81659   0.11616
H          H       0.56537   0.55472   0.73785   0.11766
H          H       0.27785   0.13774   0.45613   0.11706
H          H       0.06535   0.05468   0.64218   0.11750
H          H       0.83604   0.54875   0.03941   0.11472
H          H       0.27278   0.90340   0.32893   0.08454
H          H       0.78151   0.08818   0.62497   0.09803
H          H       0.38760   0.85073   0.44507   0.11650
H          H       0.40517   0.21787   0.30477   0.12417
H          H       0.87497   0.99474   0.41176   0.09794
H          H       0.81203   0.54050   0.77415   0.11422
H          H       0.03981   0.24813   0.50616   0.08065
H          H       0.03947   0.57570   0.83600   0.11472
H          H       0.99501   0.82888   0.77273   0.08428
H          H       0.36230   0.37175   0.22218   0.11706
H          H       0.42417   0.96053   0.45118   0.11541
H          H       0.64926   0.05493   0.18338   0.11678
H          H       0.91174   0.21845   0.49485   0.09914
H          H       0.20599   0.03982   0.50613   0.08040
H          H       0.85786   0.26218   0.44534   0.11733
H          H       0.69896   0.49853   0.96073   0.08891
H          H       0.67616   0.05297   0.81296   0.11431
H          H       0.04220   0.82378   0.44702   0.11492
H          H       0.32877   0.89761   0.99898   0.12038
H          H       0.72966   0.06046   0.50430   0.10329
H          H       0.04387   0.37171   0.36224   0.11719
H          H       0.06049   0.70565   0.50424   0.10759
H          H       0.72965   0.50427   0.70561   0.10758
H          H       0.67123   0.10239   0.00102   0.12037
H          H       0.35782   0.93465   0.94532   0.11748
H          H       0.81296   0.67615   0.05297   0.11424
H          H       0.77416   0.81203   0.54050   0.11431
H          H       0.67108   0.72721   0.09660   0.08470
H          H       0.67622   0.81311   0.45774   0.11446
H          H       0.44528   0.26216   0.43464   0.11773
H          H       0.99569   0.43952   0.77034   0.10826
H          H       0.72218   0.87175   0.86230   0.11703
H          H       0.72723   0.09660   0.67107   0.08451
H          H       0.83606   0.57571   0.54879   0.11468
H          H       0.22536   0.67123   0.00101   0.12032
H          H       0.45125   0.96059   0.16396   0.11483
H          H       0.57231   0.90510   0.71782   0.12353
H          H       0.96021   0.79406   0.75193   0.08076
H          H       0.31311   0.95778   0.55295   0.11463
H          H       0.62665   0.72581   0.68793   0.11407
H          H       0.93952   0.29435   0.49576   0.10759
H          H       0.55494   0.61240   0.14927   0.11669
H          H       0.37330   0.31202   0.04054   0.11392
H          H       0.22535   0.10238   0.67120   0.12046
H          H       0.63775   0.77784   0.95612   0.11691
H          H       0.07589   0.04880   0.53945   0.11510
H          H       0.87170   0.72215   0.54390   0.11676
H          H       0.12825   0.13770   0.27782   0.11699
H          H       0.77784   0.62831   0.95609   0.11710
H          H       0.61239   0.68335   0.14931   0.11649
H          H       0.00102   0.67123   0.10239   0.12023
H          H       0.00430   0.22965   0.20557   0.10764
H          H       0.19895   0.46073   0.99855   0.08895
H          H       0.70595   0.53979   0.74808   0.08069
H          H       0.95610   0.77784   0.62831   0.11711
H          H       0.59661   0.22722   0.17107   0.08456
H          H       0.25195   0.99386   0.29407   0.08067
H          H       0.05493   0.18338   0.64926   0.11702
H          H       0.84181   0.49849   0.69904   0.08898
H          H       0.99386   0.29407   0.25195   0.08060
H          H       0.64928   0.11241   0.05493   0.11671
H          H       0.03947   0.54882   0.57583   0.11546
H          H       0.96074   0.69896   0.49853   0.08895
H          H       0.72536   0.17119   0.60238   0.12052
H          H       0.54390   0.87170   0.72215   0.11690
H          H       0.74813   0.53981   0.00616   0.08064
H          H       0.09666   0.72725   0.50499   0.08416
H          H       0.67112   0.09664   0.50500   0.08374
H          H       0.82878   0.49897   0.39762   0.12024
H          H       0.76219   0.35784   0.94535   0.11738
H          H       0.24813   0.50616   0.03981   0.08064
H          H       0.85073   0.44506   0.38760   0.11639
H          H       0.56050   0.00425   0.20561   0.10762
H          H       0.26216   0.43463   0.44528   0.11767
H          H       0.19526   0.42769   0.28217   0.12362
H          H       0.57230   0.71783   0.80474   0.12359
H          H       0.66403   0.92424   0.46054   0.11468
H          H       0.41174   0.99484   0.71846   0.09894
H          H       0.59665   0.17112   0.00499   0.08308
H          H       0.37497   0.91176   0.49475   0.09787
H          H       0.12830   0.27785   0.45610   0.11696
H          H       0.29446   0.93952   0.27048   0.10765
H          H       0.90337   0.49499   0.32888   0.08356
H          H       0.87175   0.86230   0.72218   0.11677
H          H       0.32892   0.27279   0.90340   0.08449
H          H       0.15819   0.50150   0.30096   0.08910
H          H       0.50102   0.17122   0.72536   0.12027
H          H       0.50430   0.72966   0.06046   0.10337
H          H       0.16396   0.45125   0.96059   0.11472
H          H       0.05497   0.11246   0.18341   0.11611
H          H       0.99575   0.79439   0.43950   0.10751
H          H       0.92423   0.46054   0.66403   0.11461
H          H       0.14927   0.55493   0.61240   0.11660
H          H       0.56048   0.22967   0.00431   0.10795
H          H       0.85076   0.31661   0.44506   0.11619
H          H       0.53946   0.33598   0.07576   0.11476
H          H       0.95951   0.68798   0.72584   0.11390
H          H       0.54221   0.94703   0.32378   0.11503
H          H       0.45946   0.18797   0.12671   0.11419
H          H       0.34177   0.46076   0.19899   0.08902
H          H       0.99387   0.46018   0.29401   0.08066
H          H       0.27035   0.93954   0.49570   0.10352
H          H       0.20561   0.56050   0.00426   0.10757
H          H       0.80106   0.53927   0.00145   0.08917
H          H       0.67120   0.22535   0.10238   0.12054
H          H       0.87329   0.54054   0.81203   0.11387
H          H       0.06048   0.72952   0.70553   0.10769
H          H       0.53924   0.80101   0.65823   0.08903
H          H       0.45777   0.81313   0.05294   0.11465
H          H       0.70561   0.72965   0.50427   0.10763
H          H       0.96020   0.75187   0.49385   0.08081
H          H       0.49898   0.82878   0.27464   0.12042
H          H       0.49481   0.21843   0.37497   0.10031
H          H       0.94507   0.81662   0.35074   0.11678
H          H       0.03979   0.20594   0.24808   0.08062
H          H       0.00499   0.17112   0.22727   0.08407
H          H       0.73782   0.55466   0.14215   0.11771
H          H       0.00616   0.74813   0.53981   0.08060
H          H       0.72585   0.62668   0.95953   0.11375
H          H       0.22965   0.20557   0.00429   0.10764
H          H       0.37333   0.04047   0.27415   0.11399
H          H       0.78214   0.69523   0.59483   0.12424
H          H       0.69900   0.96076   0.84178   0.08882
H          H       0.44702   0.04219   0.82378   0.11496
H          H       0.99480   0.87497   0.71844   0.09915
H          H       0.27460   0.39757   0.49894   0.12032
H          H       0.17621   0.95775   0.31309   0.11466
H          H       0.87172   0.54387   0.86224   0.11721
H          H       0.29439   0.27035   0.49573   0.10352
H          H       0.79443   0.99571   0.77034   0.10764
H          H       0.57583   0.03947   0.54883   0.11535
H          H       0.50501   0.72727   0.67113   0.08404
H          H       0.79401   0.96017   0.49387   0.08047
H          H       0.67623   0.45780   0.05297   0.11502
H          H       0.28150   0.12497   0.58818   0.09789
H          H       0.54054   0.81202   0.87329   0.11403
H          H       0.46071   0.34173   0.99849   0.08922
H          H       0.99899   0.77464   0.32877   0.12054
H          H       0.54226   0.32378   0.18690   0.11466
H          H       0.95612   0.63775   0.77785   0.11698
H          H       0.03927   0.30104   0.50147   0.08891
H          H       0.43466   0.85782   0.44531   0.11748
H          H       0.22582   0.12664   0.18793   0.11381
H          H       0.21843   0.37497   0.49481   0.10022
H          H       0.37498   0.49481   0.21843   0.10021
H          H       0.82893   0.40339   0.77279   0.08500
H          H       0.54388   0.72215   0.86226   0.11723
H          H       0.80478   0.71786   0.90518   0.12404
H          H       0.80098   0.00148   0.65821   0.08935
H          H       0.18704   0.32385   0.94703   0.11405
H          H       0.55466   0.14214   0.73782   0.11772
H          H       0.68689   0.04222   0.44705   0.11462
H          H       0.35068   0.81665   0.88761   0.11644
H          H       0.54879   0.83607   0.57571   0.11460
H          H       0.50613   0.20599   0.03982   0.08041
H          H       0.49385   0.96020   0.75187   0.08064
H          H       0.17123   0.72536   0.50102   0.12032
H          H       0.86226   0.54387   0.72215   0.11725
H          H       0.77465   0.32877   0.99899   0.12053
H          H       0.71784   0.80473   0.57231   0.12358
H          H       0.83600   0.03947   0.57570   0.11488
H          H       0.10239   0.67120   0.22535   0.12048
H          H       0.94703   0.32378   0.54220   0.11503
H          H       0.21784   0.07231   0.30473   0.12355
H          H       0.85783   0.44531   0.43466   0.11751
H          H       0.71844   0.99480   0.87497   0.09904
H          H       0.56534   0.14217   0.55469   0.11729
H          H       0.96053   0.42430   0.16400   0.11467
H          H       0.50515   0.08826   0.78154   0.09927
H          H       0.24808   0.03979   0.20595   0.08062
H          H       0.62671   0.68798   0.95946   0.11410
H          H       0.05297   0.81296   0.67616   0.11410
H          H       0.00152   0.53929   0.65826   0.08904
H          H       0.72727   0.67113   0.50501   0.08390
H          H       0.00432   0.56047   0.22966   0.10808
H          H       0.12671   0.45946   0.18798   0.11415
H          H       0.06537   0.23784   0.05471   0.11771
H          H       0.23779   0.06531   0.64222   0.11823
H          H       0.80101   0.65823   0.53924   0.08919
H          H       0.00145   0.80106   0.53926   0.08891
H          H       0.39758   0.49894   0.27460   0.12038
H          H       0.17615   0.31294   0.55298   0.11414
H          H       0.54223   0.18687   0.94706   0.11479
H          H       0.69523   0.59483   0.78214   0.12429
H          H       0.12502   0.28157   0.00520   0.10023
H          H       0.46073   0.99855   0.19894   0.08894
H          H       0.22219   0.36230   0.37175   0.11696
H          H       0.53930   0.65827   0.00151   0.08899
H          H       0.40339   0.77278   0.82893   0.08428
H          H       0.22722   0.17107   0.59662   0.08530
H          H       0.54882   0.57583   0.03947   0.11528
H          H       0.91176   0.49475   0.37497   0.09803
H          H       0.37169   0.04391   0.22216   0.11687
H          H       0.78157   0.62503   0.50519   0.10032
H          H       0.44506   0.85075   0.31661   0.11625
H          H       0.49500   0.90334   0.27276   0.08433
H          H       0.37336   0.27419   0.31207   0.11386
H          H       0.64215   0.05465   0.23781   0.11768
H          H       0.10243   0.22540   0.00105   0.12034
H          H       0.50154   0.15825   0.03930   0.08910
H          H       0.82888   0.77272   0.99502   0.08460
H          H       0.23784   0.05471   0.06537   0.11772
H          H       0.57571   0.54879   0.83606   0.11477
H          H       0.14925   0.68339   0.55494   0.11630
H          H       0.50151   0.30096   0.15819   0.08903
H          H       0.99502   0.40334   0.82889   0.08268
H          H       0.07232   0.21782   0.40510   0.12343
H          H       0.31659   0.38753   0.44503   0.11627
H          H       0.35074   0.94507   0.81662   0.11692
H          H       0.90511   0.71782   0.57231   0.12362
H          H       0.55469   0.56534   0.14217   0.11746
H          H       0.75195   0.79406   0.49387   0.08072
H          H       0.44502   0.31658   0.38754   0.11617
H          H       0.73784   0.56537   0.55472   0.11781
H          H       0.99570   0.77035   0.79444   0.10757
H          H       0.17120   0.60237   0.72536   0.12047
H          H       0.65824   0.53923   0.80102   0.08914
H          H       0.89762   0.32880   0.77465   0.12026
H          H       0.50103   0.60238   0.17123   0.12024
H          H       0.03924   0.15822   0.30100   0.08903
H          H       0.53981   0.00616   0.74813   0.08063
H          H       0.77035   0.79442   0.99571   0.10385
H          H       0.22215   0.04388   0.36225   0.11712
H          H       0.92423   0.66396   0.95123   0.11463
H          H       0.92768   0.78218   0.59490   0.12321
H          H       0.53927   0.00145   0.80106   0.08906
H          H       0.61240   0.14927   0.55493   0.11672
H          H       0.44534   0.85786   0.26218   0.11740
H          H       0.96053   0.45117   0.42417   0.11538
H          H       0.49500   0.32888   0.90336   0.08366
H          H       0.86230   0.72218   0.87176   0.11703
H          H       0.18797   0.45950   0.22585   0.11409
H          H       0.59483   0.78213   0.69523   0.12423
H          H       0.58824   0.12503   0.00526   0.09785
H          H       0.95613   0.62829   0.63776   0.11692
H          H       0.95123   0.92423   0.66396   0.11474
H          H       0.36224   0.04388   0.37170   0.11716
H          H       0.26219   0.44534   0.85785   0.11750
H          H       0.25187   0.46019   0.99384   0.08073
H          H       0.45774   0.67622   0.81310   0.11455
H          H       0.14217   0.55469   0.56534   0.11730
H          H       0.09482   0.19523   0.28214   0.12411
H          H       0.46055   0.66402   0.92424   0.11471
H          H       0.04877   0.07577   0.33604   0.11476
H          H       0.27782   0.12825   0.13770   0.11694
H          H       0.72952   0.70553   0.06048   0.10779
H          H       0.68798   0.72584   0.95950   0.11414
H          H       0.94532   0.35782   0.93466   0.11754
H          H       0.80472   0.90511   0.57232   0.12367
H          H       0.53940   0.04873   0.33602   0.11478
H          H       0.19523   0.28214   0.09482   0.12415
H          H       0.80474   0.57231   0.71784   0.12340
H          H       0.49485   0.91174   0.21846   0.09918
H          H       0.84175   0.96070   0.49847   0.08935
H          H       0.31664   0.85069   0.38761   0.11656
H          H       0.04880   0.53946   0.07589   0.11512
H          H       0.60239   0.17123   0.50103   0.12025
H          H       0.90334   0.27275   0.49501   0.08436
H          H       0.95954   0.72585   0.62667   0.11395
H          H       0.18338   0.64926   0.05493   0.11677
H          H       0.92411   0.95119   0.46055   0.11514
H          H       0.44531   0.43466   0.85783   0.11736
H          H       0.63776   0.95612   0.62830   0.11705
H          H       0.04388   0.36225   0.22216   0.11699
H          H       0.81313   0.05294   0.45777   0.11468
H          H       0.30477   0.40517   0.21787   0.12410
H          H       0.65826   0.00151   0.53930   0.08897
H          H       0.99851   0.34180   0.19903   0.08890
H          H       0.92769   0.69527   0.78216   0.12351
H          H       0.45610   0.12830   0.27785   0.11700
H          H       0.79439   0.43949   0.99574   0.10741
H          H       0.28218   0.42769   0.09489   0.12348
H          H       0.99848   0.46070   0.34174   0.08921
H          H       0.91182   0.37503   0.21849   0.09790
H          H       0.72725   0.50499   0.09666   0.08392
H          H       0.86225   0.87171   0.54387   0.11732
H          H       0.00498   0.22725   0.59667   0.08420
H          H       0.66398   0.46060   0.95127   0.11485
H          H       0.85779   0.43470   0.26221   0.11772
H          H       0.62503   0.08824   0.50525   0.09774
H          H       0.49499   0.27273   0.32888   0.08475
H          H       0.64222   0.23778   0.06531   0.11817
H          H       0.99384   0.25187   0.46020   0.08082
H          H       0.53946   0.07589   0.04881   0.11509
H          H       0.26221   0.85779   0.43470   0.11767
H          H       0.18335   0.11239   0.64932   0.11653
H          H       0.89757   0.77460   0.99895   0.12049
H          H       0.71782   0.57231   0.90511   0.12347
H          H       0.95775   0.31309   0.17622   0.11444
H          H       0.31207   0.37336   0.27419   0.11391
H          H       0.27464   0.82881   0.39762   0.12041
H          H       0.00526   0.58824   0.12503   0.09782
H          H       0.13774   0.45613   0.27785   0.11705
H          H       0.69904   0.84180   0.49850   0.08891
H          H       0.21849   0.91182   0.37504   0.09792
H          H       0.40335   0.82888   0.99501   0.08310
H          H       0.82385   0.68706   0.44702   0.11390
H          H       0.24805   0.20594   0.50613   0.08102
H          H       0.21782   0.40510   0.07232   0.12343
H          H       0.58818   0.28150   0.12497   0.09793
H          H       0.27416   0.04050   0.31202   0.11416
H          H       0.59490   0.69529   0.92767   0.12332
H          H       0.99502   0.77275   0.40333   0.08433
H          H       0.41176   0.87497   0.99474   0.09797
H          H       0.00613   0.53982   0.70599   0.08088
H          H       0.43950   0.99574   0.79439   0.10751
H          H       0.00520   0.12502   0.28156   0.09926
H          H       0.32877   0.99899   0.77465   0.12024
H          H       0.45121   0.16393   0.42430   0.11465
H          H       0.50614   0.24805   0.20593   0.08074
H          H       0.05492   0.64928   0.11241   0.11652
H          H       0.22586   0.45953   0.12668   0.11391
H          H       0.35785   0.94535   0.76219   0.11752
H          H       0.32378   0.18689   0.54226   0.11451
H          H       0.14221   0.56530   0.73779   0.11769
H          H       0.77278   0.82893   0.40338   0.08450
H          H       0.82877   0.27464   0.49898   0.12032
H          H       0.42429   0.45121   0.16394   0.11455
H          H       0.88753   0.81659   0.94504   0.11596
H          H       0.18341   0.05497   0.11247   0.11619
H          H       0.42769   0.09489   0.28218   0.12337
H          H       0.04050   0.31202   0.27416   0.11410
H          H       0.82881   0.39762   0.27464   0.12021
H          H       0.81208   0.77418   0.87336   0.11374
H          H       0.44702   0.82385   0.68706   0.11406
H          H       0.46018   0.29401   0.99387   0.08090
H          H       0.27035   0.49573   0.29439   0.10340
H          H       0.87335   0.81207   0.77418   0.11389
C          C       0.51406   0.11902   0.96262   0.57881
C          C       0.98593   0.53737   0.38102   0.57899
C          C       0.55626   0.15062   0.18738  -0.03621
C          C       0.63537   0.74369   0.09458  -0.15839
C          C       0.89171   0.44409   0.85423   0.00516
C          C       0.95591   0.18756   0.41711  -0.13711
C          C       0.74376   0.63542   0.52626  -0.15862
C          C       0.93848   0.82971   0.73594  -0.15636
C          C       0.20081   0.50582   0.34500  -0.09775
C          C       0.39804   0.27867   0.85809  -0.37042
C          C       0.90540   0.47372   0.36458  -0.15664
C          C       0.04055   0.39462   0.32710  -0.37039
C          C       0.17144   0.02088   0.25190  -0.14389
C          C       0.36361   0.42746   0.25989   0.08003
C          C       0.60196   0.72133   0.14191  -0.37040
C          C       0.86361   0.75990   0.92746   0.07967
C          C       0.04902   0.76516   0.59916   0.03028
C          C       0.97375   0.86458   0.75625  -0.15783
C          C       0.04902   0.59926   0.58663   0.03075
C          C       0.18756   0.41710   0.95591  -0.13712
C          C       0.74811   0.97910   0.44422  -0.14154
C          C       0.97378   0.75627   0.40538  -0.15779
C          C       0.54408   0.08288   0.31246  -0.13733
C          C       0.76408   0.67029   0.56152  -0.15650
C          C       0.50576   0.94835   0.34499  -0.09931
C          C       0.45098   0.91337   0.90075   0.03036
C          C       0.09573   0.98589   0.38106   0.58024
C          C       0.09459   0.63537   0.74369  -0.15842
C          C       0.81262   0.44374   0.84938  -0.03625
C          C       0.60570   0.65067   0.68740  -0.03659
C          C       0.15068   0.55626   0.10569  -0.03753
C          C       0.86463   0.40541   0.75632  -0.15873
C          C       0.55626   0.18738   0.10569  -0.03686
C          C       0.24010   0.55096   0.07252   0.07879
C          C       0.65502   0.49424   0.05165  -0.09946
C          C       0.23417   0.06812   0.55384   0.04628
C          C       0.32710   0.04055   0.39462  -0.37054
C          C       0.13542   0.24376   0.02625  -0.15869
C          C       0.77868   0.89804   0.35808  -0.37094
C          C       0.76412   0.56153   0.00407  -0.15631
C          C       0.32849   0.47911   0.94421  -0.14406
C          C       0.19002   0.14576   0.55591   0.00504
C          C       0.05579   0.67152   0.52089  -0.14396
C          C       0.23484   0.40084   0.95098   0.03017
C          C       0.10197   0.64192   0.22132  -0.37066
C          C       0.01411   0.61895   0.90426   0.58045
C          C       0.10829   0.55590   0.14577   0.00512
C          C       0.17029   0.26407   0.06151  -0.15627
C          C       0.31262   0.94376   0.39430  -0.03673
C          C       0.36463   0.25631   0.90542  -0.15844
C          C       0.84501   0.44835   0.00575  -0.09879
C          C       0.94905   0.36362   0.25995   0.08083
C          C       0.26411   0.50408   0.06153  -0.15612
C          C       0.44375   0.84938   0.81262  -0.03725
C          C       0.35423   0.30997   0.94412   0.00518
C          C       0.46524   0.39801   0.85809  -0.37013
C          C       0.76585   0.44617   0.85619   0.04716
C          C       0.03474   0.22135   0.64190  -0.37114
C          C       0.73594   0.93848   0.82971  -0.15639
C          C       0.13642   0.07259   0.55096   0.08013
C          C       0.82967   0.93843   0.49591  -0.15571
C          C       0.51376   0.61122   0.83010  -0.05692
C          C       0.38105   0.09573   0.98589   0.58066
C          C       0.77863   0.96522   0.89798  -0.37049
C          C       0.05383   0.56811   0.73416   0.04648
C          C       0.90427   0.01411   0.61895   0.58036
C          C       0.67141   0.05579   0.75178  -0.14476
C          C       0.03733   0.88091   0.59572   0.57879
C          C       0.09461   0.52628   0.63542  -0.15655
C          C       0.88878   0.45506   0.98616  -0.05509
C          C       0.99425   0.15499   0.55165  -0.09884
C          C       0.91338   0.90075   0.45097   0.03024
C          C       0.25624   0.36458   0.47374  -0.15848
C          C       0.48622   0.16994   0.95505  -0.05611
C          C       0.06152   0.17029   0.26407  -0.15638
C          C       0.48591   0.59574   0.88102   0.57960
C          C       0.70089   0.44835   0.84510  -0.09796
C          C       0.85613   0.93189   0.76581   0.04636
C          C       0.60569   0.05624   0.65069  -0.03666
C          C       0.84932   0.44374   0.89432  -0.03670
C          C       0.41702   0.43945   0.95588  -0.13812
C          C       0.08297   0.54411   0.06056  -0.13786
C          C       0.90075   0.45098   0.91337   0.03026
C          C       0.55163   0.29921   0.99421  -0.09885
C          C       0.64577   0.69003   0.05588   0.00526
C          C       0.34933   0.31260   0.39431  -0.03653
C          C       0.50408   0.06153   0.26411  -0.15611
C          C       0.36362   0.25995   0.94906   0.08067
C          C       0.75996   0.86362   0.44904   0.08091
C          C       0.44374   0.81262   0.89431  -0.03688
C          C       0.51409   0.40425   0.11899   0.57964
C          C       0.91712   0.68754   0.45592  -0.13752
C          C       0.31246   0.54408   0.08288  -0.13725
C          C       0.86362   0.44904   0.75996   0.08103
C          C       0.44835   0.00575   0.84501  -0.09922
C          C       0.06156   0.50409   0.17034  -0.15591
C          C       0.24813   0.94422   0.47911  -0.14037
C          C       0.55384   0.23417   0.06811   0.04604
C          C       0.57252   0.05095   0.74011   0.07962
C          C       0.11899   0.51409   0.40426   0.57951
C          C       0.03737   0.59578   0.48602   0.57796
C          C       0.15499   0.55165   0.99425  -0.09897
C          C       0.89432   0.84932   0.44375  -0.03757
C          C       0.47912   0.32853   0.24813  -0.14091
C          C       0.74005   0.05095   0.63638   0.08083
C          C       0.74011   0.63639   0.57255   0.08010
C          C       0.35810   0.96526   0.77865  -0.37087
C          C       0.76515   0.04902   0.58659   0.02909
C          C       0.23769   0.39463   0.04054  -0.36980
C          C       0.45945   0.17290   0.10537  -0.37072
C          C       0.43847   0.99593   0.23589  -0.15609
C          C       0.84934   0.89431   0.81261  -0.03689
C          C       0.60830   0.64577   0.05588   0.00843
C          C       0.64578   0.05589   0.60830   0.00537
C          C       0.89468   0.82716   0.73772  -0.37036
C          C       0.65493   0.05165   0.79909  -0.09797
C          C       0.51384   0.04496   0.61125  -0.05460
C          C       0.10569   0.55626   0.18738  -0.03689
C          C       0.19007   0.55590   0.10824   0.00805
C          C       0.23589   0.43846   0.99593  -0.15611
C          C       0.88101   0.48591   0.59574   0.57938
C          C       0.59572   0.03734   0.88091   0.57872
C          C       0.95098   0.23484   0.40084   0.03033
C          C       0.74011   0.57252   0.05095   0.07956
C          C       0.73768   0.54054   0.89464  -0.37003
C          C       0.60537   0.95946   0.76232  -0.36982
C          C       0.09925   0.54902   0.08663   0.03034
C          C       0.14191   0.60196   0.72133  -0.37037
C          C       0.66996   0.45508   0.88885  -0.05576
C          C       0.45506   0.98616   0.88878  -0.05495
C          C       0.52089   0.75187   0.05578  -0.14044
C          C       0.26232   0.45946   0.10537  -0.37000
C          C       0.94411   0.35424   0.30997   0.00522
C          C       0.42745   0.25989   0.36361   0.08005
C          C       0.01401   0.90422   0.46264   0.57839
C          C       0.40079   0.23481   0.41342   0.02934
C          C       0.74375   0.52623   0.09461  -0.15777
C          C       0.82711   0.89462   0.54055  -0.37063
C          C       0.48625   0.38878   0.16990  -0.05688
C          C       0.59578   0.48601   0.03737   0.57805
C          C       0.89431   0.44374   0.81262  -0.03680
C          C       0.66990   0.98622   0.45506  -0.05599
C          C       0.10537   0.45945   0.17290  -0.37065
C          C       0.95588   0.43952   0.18757  -0.13646
C          C       0.27862   0.39798   0.46522  -0.37067
C          C       0.17287   0.45946   0.26230  -0.37052
C          C       0.68738   0.65063   0.05624  -0.03622
C          C       0.89176   0.80993   0.44410   0.00801
C          C       0.25626   0.47377   0.90539  -0.15774
C          C       0.44837   0.70078   0.00579  -0.09889
C          C       0.93188   0.85609   0.44617   0.04598
C          C       0.29911   0.55164   0.15491  -0.09773
C          C       0.09915   0.26517   0.54902   0.03023
C          C       0.08294   0.06048   0.31250  -0.13687
C          C       0.10202   0.22138   0.03478  -0.37064
C          C       0.73418   0.56811   0.64388   0.04644
C          C       0.05579   0.75178   0.67141  -0.14488
C          C       0.00575   0.84501   0.44835  -0.09883
C          C       0.53737   0.98599   0.09577   0.57796
C          C       0.81243   0.04412   0.56048  -0.13636
C          C       0.82856   0.97912   0.74810  -0.14383
C          C       0.89804   0.35808   0.77868  -0.37070
C          C       0.94617   0.35607   0.43187   0.04605
C          C       0.45946   0.26229   0.17287  -0.37053
C          C       0.25189   0.02090   0.55578  -0.14393
C          C       0.98624   0.66986   0.88880  -0.05678
C          C       0.02088   0.25189   0.17144  -0.14361
C          C       0.55096   0.13642   0.07259   0.08029
C          C       0.48616   0.95504   0.38875  -0.05482
C          C       0.32971   0.23596   0.99593  -0.15608
C          C       0.56812   0.73416   0.05383   0.04633
C          C       0.82862   0.74820   0.44421  -0.14527
C          C       0.89801   0.96524   0.35808  -0.37005
C          C       0.11902   0.96262   0.51406   0.57877
C          C       0.10533   0.17284   0.26228  -0.37018
C          C       0.06812   0.55383   0.23417   0.04631
C          C       0.05588   0.69007   0.60824   0.00511
C          C       0.86458   0.75624   0.97375  -0.15852
C          C       0.82971   0.73593   0.93849  -0.15610
C          C       0.18738   0.55625   0.15062  -0.03726
C          C       0.44617   0.93187   0.85609   0.04606
C          C       0.61905   0.46267   0.90429   0.57927
C          C       0.15062   0.18738   0.55625  -0.03707
C          C       0.89174   0.85424   0.80994   0.00552
C          C       0.83010   0.51375   0.61123  -0.05676
C          C       0.59926   0.58663   0.04902   0.03064
C          C       0.75187   0.05578   0.52089  -0.14052
C          C       0.00581   0.70078   0.84503  -0.09807
C          C       0.93952   0.68750   0.91707  -0.13672
C          C       0.76581   0.85613   0.93189   0.04656
C          C       0.33005   0.54492   0.11115  -0.05611
C          C       0.73485   0.91341   0.45098   0.02927
C          C       0.72136   0.53474   0.14190  -0.37027
C          C       0.75179   0.67141   0.05579  -0.14496
C          C       0.93189   0.76581   0.85614   0.04634
C          C       0.85809   0.39804   0.27867  -0.37042
C          C       0.35423   0.39173   0.30993   0.00508
C          C       0.02628   0.59461   0.13542  -0.15665
C          C       0.03478   0.10202   0.22138  -0.37051
C          C       0.23771   0.04054   0.32712  -0.37060
C          C       0.05383   0.73414   0.64382   0.04680
C          C       0.13542   0.02628   0.59462  -0.15696
C          C       0.46525   0.85811   0.27865  -0.37021
C          C       0.67029   0.56151   0.76408  -0.15620
C          C       0.64192   0.22132   0.10196  -0.37087
C          C       0.80994   0.89173   0.85424   0.00542
C          C       0.26228   0.10532   0.17284  -0.37030
C          C       0.54903   0.26515   0.08658   0.02949
C          C       0.94376   0.39430   0.31262  -0.03774
C          C       0.25989   0.42748   0.94905   0.07963
C          C       0.58290   0.04410   0.81244  -0.13715
C          C       0.67288   0.76229   0.95946  -0.37049
C          C       0.08288   0.31246   0.54408  -0.13768
C          C       0.26229   0.17287   0.45946  -0.37056
C          C       0.05578   0.52088   0.75188  -0.14029
C          C       0.76583   0.93188   0.44617   0.04646
C          C       0.61898   0.01408   0.46263   0.57868
C          C       0.13537   0.59459   0.24368  -0.15815
C          C       0.54492   0.11115   0.33005  -0.05590
C          C       0.56157   0.67033   0.00408  -0.15544
C          C       0.99593   0.32972   0.23596  -0.15585
C          C       0.49592   0.73597   0.82972  -0.15629
C          C       0.94421   0.24822   0.32859  -0.14487
C          C       0.94836   0.20091   0.34507  -0.09813
C          C       0.72139   0.60202   0.53478  -0.37068
C          C       0.40074   0.41337   0.95098   0.03053
C          C       0.46522   0.27861   0.39799  -0.37070
C          C       0.32967   0.99592   0.43843  -0.15544
C          C       0.67285   0.60532   0.76228  -0.37049
C          C       0.73483   0.45098   0.90085   0.03014
C          C       0.89432   0.81261   0.84934  -0.03681
C          C       0.05095   0.57259   0.63642   0.07887
C          C       0.60533   0.76228   0.67285  -0.37049
C          C       0.34507   0.94835   0.20092  -0.09784
C          C       0.04412   0.58299   0.56055  -0.13827
C          C       0.25989   0.36361   0.42745   0.08008
C          C       0.38102   0.98592   0.53737   0.57861
C          C       0.52628   0.63542   0.09461  -0.15651
C          C       0.00408   0.56156   0.67033  -0.15547
C          C       0.10199   0.03476   0.64192  -0.37010
C          C       0.79919   0.05164   0.49421  -0.09907
C          C       0.83001   0.61117   0.04494  -0.05625
C          C       0.79909   0.65493   0.05165  -0.09782
C          C       0.67148   0.75188   0.52087  -0.14347
C          C       0.50409   0.26403   0.17028  -0.15624
C          C       0.82713   0.54054   0.73771  -0.37052
C          C       0.60825   0.05588   0.69008   0.00479
C          C       0.38878   0.16990   0.48625  -0.05663
C          C       0.26520   0.09920   0.08658   0.02944
C          C       0.90542   0.36463   0.25631  -0.15849
C          C       0.15066   0.10568   0.18739  -0.03680
C          C       0.94905   0.42741   0.36358   0.07880
C          C       0.09578   0.53736   0.98599   0.57827
C          C       0.40539   0.86458   0.97372  -0.15710
C          C       0.44421   0.97910   0.82851  -0.14417
C          C       0.49424   0.05165   0.65502  -0.09951
C          C       0.24010   0.07254   0.13639   0.07988
C          C       0.05165   0.79909   0.65493  -0.09773
C          C       0.44409   0.80998   0.85424   0.00515
C          C       0.82716   0.73772   0.89468  -0.37051
C          C       0.95506   0.16999   0.38883  -0.05601
C          C       0.44904   0.75996   0.86362   0.08100
C          C       0.85424   0.44409   0.80998   0.00518
C          C       0.95504   0.38875   0.48616  -0.05476
C          C       0.81262   0.89431   0.44374  -0.03675
C          C       0.39175   0.94412   0.30993   0.00507
C          C       0.27864   0.46526   0.85811  -0.37038
C          C       0.53479   0.72138   0.60201  -0.37057
C          C       0.09920   0.08658   0.26520   0.02951
C          C       0.04054   0.23768   0.39464  -0.36969
C          C       0.85811   0.27864   0.46526  -0.37030
C          C       0.41710   0.95590   0.18756  -0.13724
C          C       0.43844   0.32966   0.99592  -0.15550
C          C       0.52088   0.67147   0.75188  -0.14353
C          C       0.94837   0.50580   0.20081  -0.09885
C          C       0.91703   0.45589   0.93944  -0.13776
C          C       0.76229   0.95945   0.67288  -0.37051
C          C       0.53732   0.09572   0.38095   0.57918
C          C       0.34931   0.39431   0.94376  -0.03760
C          C       0.73771   0.82713   0.54054  -0.37050
C          C       0.65063   0.05623   0.68738  -0.03596
C          C       0.00407   0.76412   0.56153  -0.15600
C          C       0.07258   0.55096   0.13642   0.08016
C          C       0.89464   0.73768   0.54054  -0.36988
C          C       0.10568   0.15068   0.55626  -0.03755
C          C       0.91342   0.73480   0.90081   0.02951
C          C       0.50582   0.34500   0.20081  -0.09767
C          C       0.76405   0.00407   0.67029  -0.15634
C          C       0.29921   0.99421   0.55164  -0.09882
C          C       0.69007   0.64577   0.60827   0.00513
C          C       0.68751   0.91706   0.93952  -0.13688
C          C       0.05624   0.65069   0.60569  -0.03762
C          C       0.72133   0.14191   0.60196  -0.37039
C          C       0.94617   0.43189   0.26584   0.04658
C          C       0.75631   0.86463   0.40541  -0.15824
C          C       0.92742   0.44904   0.86358   0.08014
C          C       0.74820   0.44421   0.82862  -0.14304
C          C       0.68738   0.05624   0.60570  -0.03682
C          C       0.23419   0.14387   0.06811   0.04639
C          C       0.55579   0.02090   0.17149  -0.14393
C          C       0.73772   0.89467   0.82716  -0.37038
C          C       0.57255   0.74011   0.63639   0.08015
C          C       0.03476   0.64192   0.10199  -0.36999
C          C       0.40541   0.75631   0.86463  -0.15818
C          C       0.09571   0.38094   0.53733   0.57922
C          C       0.17029   0.50408   0.26403  -0.15627
C          C       0.44617   0.76583   0.93189   0.04617
C          C       0.55579   0.17138   0.25180  -0.14544
C          C       0.90539   0.25626   0.47378  -0.15790
C          C       0.31260   0.39431   0.34933  -0.03653
C          C       0.04494   0.83001   0.61117  -0.05611
C          C       0.59459   0.24369   0.13537  -0.15818
C          C       0.51378   0.83006   0.04495  -0.05619
C          C       0.70079   0.84503   0.00581  -0.09794
C          C       0.63542   0.52625   0.74377  -0.15874
C          C       0.39801   0.85809   0.46524  -0.37022
C          C       0.07252   0.24010   0.55096   0.07859
C          C       0.47374   0.25624   0.36459  -0.15849
C          C       0.65069   0.60569   0.05624  -0.03743
C          C       0.50579   0.20081   0.94837  -0.09878
C          C       0.90429   0.61906   0.46267   0.57918
C          C       0.25180   0.55579   0.17138  -0.14229
C          C       0.32971   0.43849   0.23592  -0.15616
C          C       0.94412   0.39170   0.35423   0.00840
C          C       0.85609   0.44617   0.93187   0.04598
C          C       0.54903   0.08663   0.09925   0.03021
C          C       0.75990   0.44904   0.92748   0.07970
C          C       0.93189   0.44617   0.76583   0.04631
C          C       0.17033   0.06157   0.50409  -0.15577
C          C       0.30997   0.94411   0.35423   0.00521
C          C       0.32715   0.39467   0.23772  -0.37057
C          C       0.93844   0.49591   0.82967  -0.15576
C          C       0.74811   0.82855   0.97912  -0.14128
C          C       0.66987   0.88880   0.98624  -0.05688
C          C       0.95946   0.67287   0.76229  -0.37028
C          C       0.99422   0.55163   0.29921  -0.09876
C          C       0.44422   0.74810   0.97911  -0.14365
C          C       0.85809   0.46523   0.39801  -0.37018
C          C       0.67033   0.00408   0.56157  -0.15541
C          C       0.26517   0.54902   0.09915   0.02984
C          C       0.02090   0.55578   0.25189  -0.14395
C          C       0.01408   0.46263   0.61899   0.57898
C          C       0.63642   0.05095   0.57259   0.07973
C          C       0.26584   0.94617   0.43189   0.04653
C          C       0.04496   0.61125   0.51384  -0.05467
C          C       0.94422   0.47911   0.24813  -0.14033
C          C       0.76516   0.59916   0.04902   0.03004
C          C       0.39431   0.34933   0.31261  -0.03647
C          C       0.14381   0.23415   0.55383   0.04695
C          C       0.88091   0.59572   0.03733   0.57867
C          C       0.45589   0.93944   0.91703  -0.13773
C          C       0.17290   0.10538   0.45945  -0.37108
C          C       0.39171   0.35422   0.94412   0.00845
C          C       0.95945   0.60538   0.67290  -0.37030
C          C       0.16994   0.95505   0.48623  -0.05608
C          C       0.55164   0.15490   0.29911  -0.09800
C          C       0.18739   0.15066   0.10569  -0.03692
C          C       0.73414   0.64382   0.05383   0.04674
C          C       0.14190   0.72136   0.53474  -0.37029
C          C       0.06813   0.14391   0.55383   0.04598
C          C       0.43953   0.41705   0.18752  -0.13684
C          C       0.40422   0.51398   0.96263   0.57804
C          C       0.53475   0.14189   0.72136  -0.37029
C          C       0.50409   0.17033   0.06157  -0.15587
C          C       0.92748   0.75990   0.44904   0.07899
C          C       0.86458   0.97372   0.40539  -0.15651
C          C       0.59462   0.02622   0.24374  -0.15772
C          C       0.47911   0.94421   0.32849  -0.14408
C          C       0.75990   0.92745   0.86361   0.07991
C          C       0.86358   0.92741   0.44904   0.08010
C          C       0.69003   0.05589   0.64577   0.00509
C          C       0.29921   0.15497   0.99419  -0.09823
C          C       0.08662   0.09925   0.54903   0.03036
C          C       0.14387   0.06811   0.23419   0.04641
C          C       0.14576   0.55591   0.19002   0.00515
C          C       0.22135   0.64190   0.03474  -0.37092
C          C       0.09461   0.74374   0.52622  -0.15795
C          C       0.10824   0.19007   0.55590   0.00805
C          C       0.93944   0.91703   0.45589  -0.13772
C          C       0.39462   0.32710   0.04056  -0.37045
C          C       0.26403   0.17029   0.50408  -0.15615
C          C       0.14577   0.19006   0.10826   0.00556
C          C       0.54055   0.82710   0.89463  -0.37058
C          C       0.84503   0.00581   0.70078  -0.09819
C          C       0.24004   0.13638   0.55096   0.08091
C          C       0.98616   0.88878   0.45506  -0.05502
C          C       0.24375   0.02626   0.13542  -0.15780
C          C       0.47377   0.90539   0.25626  -0.15796
C          C       0.02623   0.24373   0.59462  -0.15785
C          C       0.75188   0.52087   0.67148  -0.14366
C          C       0.59461   0.13542   0.02628  -0.15723
C          C       0.94421   0.32848   0.47911  -0.14402
C          C       0.85619   0.76585   0.44617   0.04682
C          C       0.67290   0.95944   0.60538  -0.37061
C          C       0.14577   0.10829   0.55591   0.00526
C          C       0.92746   0.86361   0.75990   0.07994
C          C       0.02626   0.13542   0.24376  -0.15778
C          C       0.45508   0.88885   0.66995  -0.05575
C          C       0.23596   0.99593   0.32971  -0.15626
C          C       0.52089   0.05579   0.67152  -0.14397
C          C       0.45592   0.91712   0.68754  -0.13758
C          C       0.77865   0.35809   0.96526  -0.37118
C          C       0.25630   0.90542   0.36463  -0.15846
C          C       0.43952   0.18757   0.95588  -0.13639
C          C       0.81245   0.58290   0.04410  -0.13685
C          C       0.47911   0.24813   0.94422  -0.14041
C          C       0.94377   0.34931   0.39431  -0.03760
C          C       0.88880   0.98624   0.66986  -0.05694
C          C       0.38875   0.48616   0.95504  -0.05482
C          C       0.45589   0.68755   0.93951  -0.13674
C          C       0.64393   0.56813   0.05383   0.04609
C          C       0.93951   0.45589   0.68756  -0.13696
C          C       0.61123   0.83010   0.51375  -0.05688
C          C       0.96267   0.11909   0.40428   0.57871
C          C       0.10569   0.18739   0.15066  -0.03683
C          C       0.19006   0.10826   0.14576   0.00544
C          C       0.18738   0.10569   0.55626  -0.03696
C          C       0.63640   0.57254   0.74011   0.08007
C          C       0.75625   0.97374   0.86458  -0.15783
C          C       0.26407   0.06152   0.17029  -0.15630
C          C       0.25995   0.94905   0.36362   0.08090
C          C       0.96525   0.35808   0.89801  -0.37005
C          C       0.41705   0.18752   0.43953  -0.13703
C          C       0.34937   0.94377   0.31262  -0.03630
C          C       0.26582   0.43189   0.35612   0.04642
C          C       0.94412   0.30992   0.39176   0.00521
C          C       0.10536   0.26232   0.45946  -0.36989
C          C       0.05624   0.60570   0.68738  -0.03782
C          C       0.73590   0.49592   0.93847  -0.15601
C          C       0.99420   0.29922   0.15497  -0.09813
C          C       0.42748   0.94905   0.25989   0.07965
C          C       0.13638   0.55096   0.24004   0.08098
C          C       0.36458   0.47375   0.25624  -0.15847
C          C       0.63542   0.09461   0.52628  -0.15656
C          C       0.35618   0.94617   0.26586   0.04679
C          C       0.49421   0.79919   0.05164  -0.09895
C          C       0.42741   0.36358   0.94905   0.07894
C          C       0.35423   0.94411   0.39171   0.00525
C          C       0.64388   0.73418   0.56811   0.04637
C          C       0.33010   0.01378   0.54494  -0.05590
C          C       0.54411   0.06056   0.08297  -0.13786
C          C       0.07254   0.13639   0.24010   0.07975
C          C       0.30993   0.39175   0.94412   0.00496
C          C       0.03738   0.48594   0.88098   0.57871
C          C       0.88098   0.03738   0.48594   0.57873
C          C       0.49419   0.65499   0.79920  -0.09800
C          C       0.74370   0.09458   0.63537  -0.15814
C          C       0.96526   0.77865   0.35810  -0.37116
C          C       0.43189   0.26584   0.94617   0.04643
C          C       0.36358   0.94905   0.42741   0.07985
C          C       0.54494   0.33010   0.01378  -0.05592
C          C       0.43848   0.23593   0.32971  -0.15634
C          C       0.85423   0.89171   0.44409   0.00516
C          C       0.05589   0.64576   0.69003   0.00516
C          C       0.53737   0.38102   0.98592   0.57909
C          C       0.91707   0.93952   0.68750  -0.13662
C          C       0.04412   0.56048   0.81243  -0.13643
C          C       0.22138   0.03478   0.10202  -0.37067
C          C       0.64577   0.60827   0.69007   0.00501
C          C       0.23415   0.55383   0.14381   0.04705
C          C       0.32859   0.94421   0.24822  -0.14492
C          C       0.45098   0.73484   0.91342   0.02933
C          C       0.01384   0.11122   0.54494  -0.05492
C          C       0.80998   0.85424   0.44409   0.00508
C          C       0.18752   0.43953   0.41705  -0.13684
C          C       0.06048   0.31250   0.08293  -0.13678
C          C       0.56811   0.64388   0.73418   0.04635
C          C       0.84510   0.70089   0.44836  -0.09814
C          C       0.20081   0.94836   0.50579  -0.09890
C          C       0.88885   0.66996   0.45508  -0.05571
C          C       0.04495   0.51377   0.83007  -0.05591
C          C       0.76519   0.58658   0.59921   0.02928
C          C       0.46263   0.61898   0.01408   0.57904
C          C       0.24369   0.13537   0.59459  -0.15799
C          C       0.40428   0.96266   0.11910   0.57878
C          C       0.15491   0.29911   0.55164  -0.09792
C          C       0.61117   0.04494   0.83001  -0.05604
C          C       0.57259   0.63642   0.05095   0.07885
C          C       0.31262   0.34937   0.94377  -0.03628
C          C       0.76232   0.60537   0.95946  -0.36980
C          C       0.82852   0.44421   0.97910  -0.14402
C          C       0.11122   0.54494   0.01384  -0.05501
C          C       0.54411   0.31245   0.06049  -0.13658
C          C       0.32712   0.23771   0.04055  -0.37032
C          C       0.17148   0.55579   0.02090  -0.14394
C          C       0.49591   0.82967   0.93844  -0.15581
C          C       0.67029   0.76404   0.00407  -0.15600
C          C       0.04410   0.81244   0.58290  -0.13726
C          C       0.60827   0.69007   0.64577   0.00525
C          C       0.56048   0.81243   0.04412  -0.13617
C          C       0.47372   0.36458   0.90540  -0.15646
C          C       0.97911   0.82851   0.44421  -0.14379
C          C       0.55383   0.06813   0.14392   0.04612
C          C       0.33013   0.11120   0.01376  -0.05684
C          C       0.95946   0.76232   0.60537  -0.36984
C          C       0.23593   0.32971   0.43848  -0.15632
C          C       0.46268   0.90428   0.61905   0.57933
C          C       0.82972   0.49592   0.73597  -0.15626
C          C       0.20091   0.34507   0.94835  -0.09784
C          C       0.63639   0.74005   0.05095   0.08058
C          C       0.68755   0.93951   0.45589  -0.13665
C          C       0.73416   0.05383   0.56812   0.04644
C          C       0.16999   0.38883   0.95506  -0.05622
C          C       0.58663   0.04902   0.59926   0.03075
C          C       0.06056   0.08297   0.54411  -0.13784
C          C       0.64192   0.10200   0.03476  -0.37008
C          C       0.73597   0.82971   0.49592  -0.15633
C          C       0.23486   0.95098   0.41341   0.02905
C          C       0.44904   0.86358   0.92741   0.08012
C          C       0.38883   0.95506   0.16999  -0.05599
C          C       0.44617   0.85619   0.76585   0.04707
C          C       0.93847   0.73589   0.49592  -0.15604
C          C       0.43188   0.94617   0.35607   0.04617
C          C       0.35607   0.43187   0.94617   0.04609
C          C       0.02090   0.17148   0.55579  -0.14381
C          C       0.05383   0.64393   0.56813   0.04603
C          C       0.61895   0.90426   0.01411   0.58075
C          C       0.30993   0.35423   0.39173   0.00517
C          C       0.94617   0.26586   0.35618   0.04665
C          C       0.69008   0.60824   0.05588   0.00491
C          C       0.36458   0.90539   0.47372  -0.15634
C          C       0.95505   0.48623   0.16993  -0.05620
C          C       0.98589   0.38105   0.09574   0.58065
C          C       0.44904   0.92749   0.75990   0.07895
C          C       0.64191   0.03474   0.22135  -0.37089
C          C       0.45947   0.10536   0.26232  -0.36988
C          C       0.44836   0.84509   0.70089  -0.09811
C          C       0.44410   0.89176   0.80993   0.00808
C          C       0.39799   0.46522   0.27861  -0.37081
C          C       0.05095   0.63638   0.74005   0.08093
C          C       0.61125   0.51384   0.04496  -0.05466
C          C       0.01376   0.33014   0.11120  -0.05690
C          C       0.34499   0.50576   0.94835  -0.09927
C          C       0.48595   0.88097   0.03738   0.57896
C          C       0.40084   0.95098   0.23484   0.03016
C          C       0.96263   0.40422   0.51399   0.57804
C          C       0.05165   0.65502   0.49424  -0.09944
C          C       0.35612   0.26582   0.43190   0.04641
C          C       0.54054   0.89464   0.73768  -0.36998
C          C       0.60199   0.14191   0.53476  -0.37005
C          C       0.58299   0.56055   0.04412  -0.13828
C          C       0.43945   0.95588   0.41702  -0.13813
C          C       0.49592   0.93847   0.73589  -0.15595
C          C       0.05588   0.60830   0.64578   0.00859
C          C       0.98599   0.09578   0.53736   0.57860
C          C       0.89798   0.77862   0.96523  -0.37036
C          C       0.68754   0.45592   0.91712  -0.13758
C          C       0.04902   0.58658   0.76515   0.02909
C          C       0.99593   0.23588   0.43847  -0.15596
C          C       0.94905   0.25989   0.42748   0.07963
C          C       0.17284   0.26228   0.10532  -0.37028
C          C       0.32853   0.24812   0.47913  -0.14121
C          C       0.70079   0.00578   0.44837  -0.09871
C          C       0.11115   0.33004   0.54493  -0.05586
C          C       0.64383   0.05383   0.73414   0.04675
C          C       0.94835   0.34498   0.50576  -0.09930
C          C       0.05095   0.74011   0.57252   0.07960
C          C       0.95098   0.40074   0.41337   0.03061
C          C       0.54495   0.01384   0.11122  -0.05489
C          C       0.97911   0.44422   0.74811  -0.14369
C          C       0.00408   0.67028   0.76404  -0.15607
C          C       0.90085   0.73483   0.45098   0.03007
C          C       0.85424   0.80994   0.89174   0.00556
C          C       0.83007   0.04495   0.51378  -0.05576
C          C       0.22132   0.10196   0.64192  -0.37098
C          C       0.84938   0.81262   0.44375  -0.03715
C          C       0.23481   0.41342   0.40079   0.02938
C          C       0.56152   0.76407   0.67029  -0.15658
C          C       0.55626   0.10568   0.15068  -0.03659
C          C       0.11909   0.40428   0.96267   0.57888
C          C       0.16990   0.48625   0.38878  -0.05677
C          C       0.44421   0.82862   0.74820  -0.14527
C          C       0.41341   0.23486   0.95098   0.02918
C          C       0.59916   0.04902   0.76516   0.03004
C          C       0.13639   0.24010   0.07254   0.07976
C          C       0.55096   0.07251   0.24011   0.07954
C          C       0.45098   0.90085   0.73483   0.03004
C          C       0.06153   0.26411   0.50408  -0.15604
C          C       0.97372   0.40538   0.86458  -0.15646
C          C       0.98622   0.45506   0.66990  -0.05564
C          C       0.89463   0.54055   0.82710  -0.37057
C          C       0.34500   0.20080   0.50582  -0.09754
C          C       0.60570   0.68738   0.05624  -0.03764
C          C       0.00578   0.44837   0.70079  -0.09870
C          C       0.95588   0.41701   0.43945  -0.13807
C          C       0.39173   0.30993   0.35423   0.00518
C          C       0.60202   0.53478   0.72139  -0.37086
C          C       0.35808   0.89800   0.96524  -0.37017
C          C       0.04054   0.32712   0.23771  -0.37026
C          C       0.44410   0.85423   0.89171   0.00528
C          C       0.24822   0.32859   0.94421  -0.14477
C          C       0.67152   0.52089   0.05579  -0.14387
C          C       0.91341   0.45097   0.73485   0.02931
C          C       0.27867   0.85809   0.39804  -0.37031
C          C       0.58659   0.76514   0.04902   0.02928
C          C       0.59574   0.88102   0.48591   0.57977
C          C       0.43189   0.35612   0.26582   0.04645
C          C       0.48602   0.03737   0.59578   0.57807
C          C       0.76228   0.67285   0.60533  -0.37028
C          C       0.65067   0.68739   0.60569  -0.03672
C          C       0.79920   0.49418   0.65500  -0.09769
C          C       0.90081   0.91342   0.73480   0.02943
C          C       0.58659   0.59920   0.76519   0.02932
C          C       0.55579   0.25189   0.02089  -0.14369
C          C       0.24373   0.59462   0.02622  -0.15785
C          C       0.75627   0.40538   0.97378  -0.15761
C          C       0.41341   0.40080   0.23481   0.02922
C          C       0.05624   0.68738   0.65063  -0.03626
C          C       0.17138   0.25180   0.55579  -0.14216
C          C       0.31245   0.06049   0.54411  -0.13662
C          C       0.56153   0.00407   0.76412  -0.15634
C          C       0.81248   0.56047   0.58295  -0.13693
C          C       0.96523   0.89798   0.77862  -0.37034
C          C       0.39467   0.23772   0.32716  -0.37062
C          C       0.41337   0.95098   0.40074   0.03056
C          C       0.65500   0.79920   0.49418  -0.09779
C          C       0.15497   0.99419   0.29922  -0.09821
C          C       0.26586   0.35618   0.94617   0.04675
C          C       0.54902   0.09915   0.26517   0.02997
C          C       0.56047   0.58294   0.81248  -0.13685
C          C       0.60538   0.67290   0.95945  -0.37044
C          C       0.55591   0.14577   0.10829   0.00526
C          C       0.45506   0.66990   0.98623  -0.05582
C          C       0.96262   0.51406   0.11902   0.57887
C          C       0.94377   0.31262   0.34938  -0.03640
C          C       0.39463   0.04054   0.23768  -0.37003
C          C       0.18757   0.95588   0.43952  -0.13635
C          C       0.44375   0.89431   0.84932  -0.03771
C          C       0.39430   0.31262   0.94376  -0.03766
C          C       0.40538   0.97378   0.75626  -0.15789
C          C       0.26515   0.08659   0.54902   0.02932
C          C       0.46264   0.01401   0.90423   0.57792
C          C       0.55591   0.10824   0.19007   0.00502
C          C       0.56055   0.04412   0.58299  -0.13836
C          C       0.25189   0.17144   0.02088  -0.14369
C          C       0.55096   0.24004   0.13638   0.08087
C          C       0.23772   0.32715   0.39467  -0.37059
C          C       0.95098   0.41341   0.23486   0.02911
C          C       0.31250   0.08294   0.06048  -0.13668
C          C       0.99592   0.43843   0.32967  -0.15529
C          C       0.10827   0.14576   0.19006   0.00543
C          C       0.81261   0.84934   0.89432  -0.03674
C          C       0.35808   0.77868   0.89804  -0.37076
C          C       0.53477   0.60199   0.14191  -0.37018
C          C       0.54054   0.73771   0.82713  -0.37050
C          C       0.24813   0.47912   0.32853  -0.14097
C          C       0.52626   0.74376   0.63542  -0.15862
C          C       0.59921   0.76519   0.58658   0.02933
C          C       0.97912   0.74810   0.82856  -0.14360
C          C       0.39431   0.94376   0.34931  -0.03663
C          C       0.14191   0.53476   0.60199  -0.37016
C          C       0.56813   0.05383   0.64393   0.04621
C          C       0.05164   0.49420   0.79920  -0.09888
C          C       0.08659   0.54902   0.26515   0.02927
C          C       0.90423   0.46264   0.01401   0.57825
C          C       0.38095   0.53732   0.09572   0.57917
C          C       0.14391   0.55383   0.06813   0.04604
C          C       0.52623   0.09461   0.74374  -0.15803
C          C       0.55383   0.14381   0.23415   0.04718
C          C       0.06811   0.23419   0.14386   0.04634
C          C       0.08659   0.26520   0.09919   0.02945
C          C       0.55591   0.19002   0.14576   0.00509
C          C       0.51399   0.96263   0.40422   0.57814
C          C       0.06049   0.54411   0.31245  -0.13666
C          C       0.40426   0.11898   0.51409   0.57955
C          C       0.55165   0.99425   0.15499  -0.09917
C          C       0.68740   0.60569   0.65067  -0.03660
C          C       0.58295   0.81248   0.56047  -0.13697
C          C       0.73481   0.90080   0.91342   0.02938
C          C       0.01378   0.54494   0.33010  -0.05579
C          C       0.11120   0.01376   0.33014  -0.05674
C          C       0.80994   0.44409   0.89176   0.00494
O          O       0.50336   0.90880   0.03327  -0.61246
O          O       0.96680   0.37589   0.55454  -0.54296
O          O       0.12403   0.94529   0.39745  -0.54354
O          O       0.09119   0.44539   0.96689  -0.61257
O          O       0.05470   0.60255   0.87597  -0.54375
O          O       0.37589   0.55454   0.96680  -0.54320
O          O       0.59112   0.99667   0.46680  -0.61286
O          O       0.99668   0.59104   0.94538  -0.61306
O          O       0.94542   0.12411   0.53325  -0.54357
O          O       0.50346   0.03320   0.55466  -0.61290
O          O       0.96674   0.49664   0.09119  -0.61266
O          O       0.40896   0.05461   0.00331  -0.61317
O          O       0.49664   0.09120   0.96673  -0.61263
O          O       0.49665   0.44539   0.09111  -0.61259
O          O       0.89729   0.62402   0.03319  -0.54311
O          O       0.05465   0.46676   0.60258  -0.54343
O          O       0.46675   0.05459   0.87589  -0.54335
O          O       0.46694   0.94538   0.59112  -0.61293
O          O       0.09119   0.96674   0.49664  -0.61258
O          O       0.09112   0.49665   0.44540  -0.61243
O          O       0.55460   0.90889   0.50335  -0.61255
O          O       0.39744   0.12403   0.94530  -0.54393
O          O       0.59104   0.94539   0.99669  -0.61345
O          O       0.05462   0.40888   0.53308  -0.61280
O          O       0.39743   0.94535   0.53324  -0.54334
O          O       0.90881   0.55461   0.03311  -0.61246
O          O       0.94533   0.46685   0.99658  -0.61246
O          O       0.03311   0.90881   0.55461  -0.61263
O          O       0.60258   0.05465   0.46676  -0.54328
O          O       0.05459   0.87589   0.46675  -0.54325
O          O       0.10271   0.37598   0.96681  -0.54330
O          O       0.10255   0.55466   0.37597  -0.54343
O          O       0.96681   0.10271   0.37598  -0.54348
O          O       0.44546   0.03320   0.62411  -0.54310
O          O       0.62403   0.89746   0.44534  -0.54337
O          O       0.03320   0.62411   0.44546  -0.54309
O          O       0.53316   0.00342   0.05466  -0.61278
O          O       0.03321   0.55465   0.50345  -0.61277
O          O       0.12411   0.53325   0.94541  -0.54342
O          O       0.55466   0.37597   0.10255  -0.54323
O          O       0.55461   0.03312   0.90881  -0.61264
O          O       0.44534   0.62403   0.89746  -0.54347
O          O       0.96681   0.55461   0.10257  -0.54313
O          O       0.94539   0.99669   0.59104  -0.61307
O          O       0.10257   0.96681   0.55461  -0.54329
O          O       0.94530   0.39745   0.12403  -0.54391
O          O       0.89743   0.03319   0.44539  -0.54361
O          O       0.49655   0.96680   0.44534  -0.61285
O          O       0.05467   0.53315   0.00342  -0.61256
O          O       0.12402   0.39728   0.53324  -0.54329
O          O       0.99658   0.94533   0.46685  -0.61275
O          O       0.46676   0.60257   0.05465  -0.54340
O          O       0.55454   0.96680   0.37589  -0.54305
O          O       0.00332   0.40896   0.05462  -0.61309
O          O       0.62402   0.03320   0.89729  -0.54303
O          O       0.89745   0.44534   0.62403  -0.54323
O          O       0.60256   0.87597   0.05470  -0.54379
O          O       0.00342   0.05467   0.53315  -0.61289
O          O       0.05461   0.00331   0.40897  -0.61306
O          O       0.03319   0.44539   0.89744  -0.54316
O          O       0.87598   0.05471   0.60255  -0.54379
O          O       0.44540   0.09111   0.49665  -0.61249
O          O       0.44539   0.89743   0.03320  -0.54354
O          O       0.87589   0.46675   0.05459  -0.54342
O          O       0.40889   0.53307   0.05462  -0.61277
O          O       0.53324   0.12402   0.39729  -0.54318
O          O       0.46684   0.99658   0.94534  -0.61242
O          O       0.00333   0.53321   0.40888  -0.61254
O          O       0.37598   0.96680   0.10271  -0.54349
O          O       0.94535   0.53324   0.39742  -0.54379
O          O       0.59112   0.46693   0.94538  -0.61270
O          O       0.46676   0.87598   0.60271  -0.54335
O          O       0.46680   0.59111   0.99667  -0.61290
O          O       0.90889   0.50335   0.55460  -0.61238
O          O       0.44534   0.49654   0.96680  -0.61263
O          O       0.37597   0.10254   0.55467  -0.54331
O          O       0.87598   0.60271   0.46676  -0.54366
O          O       0.44540   0.96687   0.09119  -0.61240
O          O       0.40889   0.00333   0.53320  -0.61266
O          O       0.62411   0.44546   0.03320  -0.54296
O          O       0.90881   0.03326   0.50336  -0.61226
O          O       0.39729   0.53324   0.12402  -0.54320
O          O       0.03326   0.50336   0.90881  -0.61259
O          O       0.94539   0.59112   0.46692  -0.61244
O          O       0.55466   0.50345   0.03320  -0.61301
O          O       0.53307   0.05462   0.40889  -0.61294
O          O       0.96689   0.09119   0.44539  -0.61221
O          O       0.03319   0.89729   0.62402  -0.54318
O          O       0.50336   0.55460   0.90889  -0.61223
O          O       0.60271   0.46676   0.87598  -0.54358
O          O       0.53320   0.40889   0.00333  -0.61272
O          O       0.55461   0.10257   0.96681  -0.54315
O          O       0.53325   0.94541   0.12411  -0.54316
O          O       0.96680   0.44535   0.49655  -0.61277
O          O       0.53324   0.39743   0.94535  -0.54373
O          O       0.99667   0.46679   0.59112  -0.61291

