data_crystal

_audit_creation_method 'AiiDA-DDEC plugin'

_cell_length_a        17.86771
_cell_length_b        29.89244
_cell_length_c        29.89103

_cell_angle_alpha     84.87969
_cell_angle_beta     72.64733
_cell_angle_gamma     72.66151

_symmetry_space_group_name_Hall 'P 1'
_symmetry_space_group_name_H-M  'P 1'

loop_
_symmetry_equiv_pos_as_xyz
 'x,y,z'

loop_
_atom_site_label
_atom_site_type_symbol
_atom_site_fract_x
_atom_site_fract_y
_atom_site_fract_z
_atom_site_charge
Mn         Mn      0.43899   0.91544   0.64267   0.98873
Mn         Mn      0.70741   0.88238   0.53227   0.99503
Mn         Mn      0.21744   0.99803   0.57766   0.97297
Mn         Mn      0.99721   0.58426   0.85764   0.98894
Mn         Mn      0.12239   0.61775   0.96791   0.99597
Mn         Mn      0.79292   0.50205   0.92208   0.97388
Mn         Mn      0.85505   0.64255   0.58436   0.98911
Mn         Mn      0.09006   0.53215   0.61733   0.99537
Mn         Mn      0.71523   0.57769   0.50232   0.97550
Mn         Mn      0.08210   0.85721   0.91551   0.98872
Mn         Mn      0.23927   0.96812   0.88268   0.99707
Mn         Mn      0.79524   0.92203   0.99774   0.97335
Mn         Mn      0.56101   0.08456   0.35733   0.98862
Mn         Mn      0.29259   0.11763   0.46773   0.99495
Mn         Mn      0.78256   0.00197   0.42235   0.97282
Mn         Mn      0.00280   0.41574   0.14236   0.98886
Mn         Mn      0.87761   0.38225   0.03209   0.99582
Mn         Mn      0.20709   0.49796   0.07792   0.97380
Mn         Mn      0.14496   0.35743   0.41567   0.98881
Mn         Mn      0.90995   0.46784   0.38269   0.99505
Mn         Mn      0.28477   0.42232   0.49770   0.97559
Mn         Mn      0.91790   0.14279   0.08449   0.98846
Mn         Mn      0.76073   0.03188   0.11733   0.99698
Mn         Mn      0.20476   0.07797   0.00226   0.97326
H          H       0.39432   0.78387   0.70243   0.12592
H          H       0.48835   0.70248   0.69283   0.09562
H          H       0.62989   0.68669   0.63692   0.11657
H          H       0.67311   0.75197   0.59138   0.10656
H          H       0.62279   0.99429   0.53001   0.15693
H          H       0.53039   0.03601   0.56874   0.15929
H          H       0.39136   0.91238   0.75346   0.09801
H          H       0.43824   0.92648   0.81968   0.12087
H          H       0.66223   0.93770   0.71812   0.12037
H          H       0.60661   0.92224   0.65620   0.09086
H          H       0.53532   0.94999   0.84651   0.10532
H          H       0.60749   0.97384   0.80529   0.10398
H          H       0.80674   0.88069   0.65038   0.12398
H          H       0.90154   0.92301   0.66117   0.09971
H          H       0.95568   0.97518   0.59784   0.11436
H          H       0.91048   0.98601   0.52506   0.11521
H          H       0.62236   0.95705   0.40592   0.12356
H          H       0.71954   0.92645   0.37215   0.12114
H          H       0.58073   0.88124   0.42116   0.11573
H          H       0.61186   0.89457   0.36046   0.12658
H          H       0.67854   0.85046   0.38587   0.12705
H          H       0.01164   0.07706   0.68948   0.12837
H          H       0.99699   0.08312   0.77443   0.09938
H          H       0.11182   0.03794   0.80733   0.10652
H          H       0.23955   0.98936   0.75393   0.10958
H          H       0.48070   0.91329   0.50096   0.11292
H          H       0.46704   0.87042   0.54449   0.11248
H          H       0.36994   0.84909   0.50838   0.12035
H          H       0.46830   0.84205   0.46799   0.11706
H          H       0.38523   0.89181   0.46419   0.12178
H          H       0.78616   0.84187   0.93790   0.09203
H          H       0.73844   0.83137   0.87045   0.12130
H          H       0.64290   0.98212   0.86570   0.12144
H          H       0.69489   0.98605   0.93341   0.09833
H          H       0.70651   0.89329   0.78927   0.10790
H          H       0.63365   0.86886   0.82771   0.10628
H          H       0.88139   0.71573   0.79761   0.12667
H          H       0.88394   0.79723   0.80752   0.09517
H          H       0.95374   0.81308   0.86352   0.11635
H          H       0.01668   0.74786   0.90899   0.10695
H          H       0.14797   0.50507   0.96990   0.15682
H          H       0.13493   0.46371   0.93117   0.15869
H          H       0.05754   0.58735   0.74658   0.09813
H          H       0.18445   0.57363   0.68034   0.12117
H          H       0.31832   0.56226   0.78188   0.12149
H          H       0.18561   0.57738   0.84383   0.09081
H          H       0.33180   0.54997   0.65348   0.10602
H          H       0.38664   0.52617   0.69469   0.10451
H          H       0.33746   0.61916   0.84966   0.12405
H          H       0.48549   0.57720   0.83881   0.10004
H          H       0.52875   0.52511   0.90211   0.11639
H          H       0.42200   0.51390   0.97481   0.11518
H          H       0.98649   0.54261   0.09373   0.12384
H          H       0.01929   0.57317   0.12770   0.12082
H          H       0.88393   0.61820   0.07890   0.11580
H          H       0.86792   0.60488   0.13957   0.12664
H          H       0.91572   0.64908   0.11413   0.12645
H          H       0.77819   0.42290   0.81032   0.12691
H          H       0.85403   0.41699   0.72522   0.09901
H          H       0.95760   0.46163   0.69244   0.10625
H          H       0.98359   0.51018   0.74578   0.10991
H          H       0.89525   0.58680   0.99879   0.11350
H          H       0.88206   0.62973   0.95535   0.11337
H          H       0.72768   0.65073   0.99139   0.12118
H          H       0.77833   0.65784   0.03193   0.11782
H          H       0.74166   0.60788   0.03546   0.12280
H          H       0.56634   0.65808   0.56214   0.09144
H          H       0.44057   0.66861   0.62942   0.12151
H          H       0.49077   0.51786   0.63435   0.12186
H          H       0.61448   0.51388   0.56676   0.10217
H          H       0.38937   0.60674   0.71062   0.10762
H          H       0.33056   0.63113   0.67212   0.10526
H          H       0.67966   0.70233   0.71618   0.12642
H          H       0.69250   0.69198   0.79760   0.09530
H          H       0.81828   0.63587   0.81315   0.11637
H          H       0.92646   0.59067   0.74766   0.10774
H          H       0.11719   0.53034   0.50487   0.15611
H          H       0.06535   0.56902   0.46351   0.15837
H          H       0.80438   0.75336   0.58703   0.09838
H          H       0.86513   0.81964   0.57350   0.11998
H          H       0.10033   0.71816   0.56216   0.11957
H          H       0.02950   0.65616   0.57709   0.09121
H          H       0.98541   0.84654   0.55006   0.10549
H          H       0.08148   0.80545   0.52624   0.10385
H          H       0.18716   0.65040   0.61915   0.12445
H          H       0.32441   0.66117   0.57724   0.09952
H          H       0.43080   0.59787   0.52516   0.11435
H          H       0.39636   0.52522   0.51396   0.11527
H          H       0.08023   0.40560   0.54231   0.12358
H          H       0.14677   0.37230   0.57318   0.12094
H          H       0.96275   0.42086   0.61817   0.11626
H          H       0.00748   0.36015   0.60483   0.12715
H          H       0.03007   0.38573   0.64891   0.12682
H          H       0.58888   0.68917   0.42294   0.12839
H          H       0.57977   0.77423   0.41676   0.09911
H          H       0.64959   0.80731   0.46180   0.10610
H          H       0.72829   0.75424   0.51075   0.11035
H          H       0.89388   0.50101   0.58673   0.11225
H          H       0.83787   0.54430   0.62989   0.11276
H          H       0.71919   0.50827   0.65098   0.12126
H          H       0.81042   0.46782   0.65807   0.11828
H          H       0.77716   0.46423   0.60817   0.12255
H          H       0.12862   0.93797   0.65807   0.09236
H          H       0.07001   0.87068   0.66864   0.12093
H          H       0.12502   0.86584   0.51787   0.12152
H          H       0.18144   0.93335   0.51385   0.09820
H          H       0.10004   0.78948   0.60685   0.10684
H          H       0.00275   0.82788   0.63121   0.10621
H          H       0.09765   0.79767   0.78396   0.12661
H          H       0.18148   0.80775   0.70246   0.09529
H          H       0.26717   0.86369   0.68676   0.11509
H          H       0.26496   0.90910   0.75207   0.10671
H          H       0.15205   0.97002   0.99478   0.15593
H          H       0.09836   0.93118   0.03636   0.15877
H          H       0.14484   0.74652   0.91274   0.09894
H          H       0.25814   0.68030   0.92645   0.11996
H          H       0.38057   0.78192   0.93778   0.11983
H          H       0.26284   0.84383   0.92270   0.09108
H          H       0.38190   0.65347   0.94993   0.10528
H          H       0.41306   0.69462   0.97378   0.10483
H          H       0.45574   0.84982   0.88072   0.12396
H          H       0.56206   0.83895   0.92250   0.09983
H          H       0.55340   0.90205   0.97476   0.11682
H          H       0.43564   0.97485   0.98591   0.11567
H          H       0.02755   0.09462   0.95794   0.12322
H          H       0.09165   0.12800   0.92717   0.12115
H          H       0.00154   0.07917   0.88203   0.11581
H          H       0.97237   0.13992   0.89507   0.12633
H          H       0.06465   0.11420   0.85126   0.12582
H          H       0.70124   0.81032   0.07697   0.12771
H          H       0.77111   0.72527   0.08317   0.09993
H          H       0.91898   0.69238   0.03822   0.10648
H          H       0.99353   0.74560   0.98956   0.11037
H          H       0.98155  -0.00095   0.91317   0.11315
H          H       0.01162   0.95571   0.87014   0.11310
H          H       0.87814   0.99184   0.84892   0.12132
H          H       0.93624   0.03218   0.84201   0.11705
H          H       0.84945   0.03584   0.89179   0.12298
H          H       0.72418   0.56213   0.84180   0.09220
H          H       0.60899   0.62945   0.83132   0.12155
H          H       0.50887   0.63405   0.98212   0.12132
H          H       0.62860   0.56647   0.98599   0.09785
H          H       0.49625   0.71059   0.89323   0.10730
H          H       0.46168   0.67221   0.86880   0.10497
H          H       0.60568   0.21613   0.29757   0.12609
H          H       0.51165   0.29752   0.30717   0.09568
H          H       0.37011   0.31332   0.36309   0.11657
H          H       0.32690   0.24803   0.40863   0.10633
H          H       0.37722   0.00571   0.46999   0.15681
H          H       0.46962   0.96400   0.43127   0.15928
H          H       0.60864   0.08762   0.24654   0.09834
H          H       0.56176   0.07352   0.18033   0.12096
H          H       0.33777   0.06230   0.28189   0.12004
H          H       0.39339   0.07776   0.34380   0.09081
H          H       0.46469   0.05001   0.15350   0.10546
H          H       0.39251   0.02616   0.19471   0.10370
H          H       0.19327   0.11931   0.34962   0.12405
H          H       0.09847   0.07699   0.33883   0.09947
H          H       0.04433   0.02482   0.40216   0.11389
H          H       0.08952   0.01399   0.47494   0.11509
H          H       0.37765   0.04296   0.59408   0.12364
H          H       0.28047   0.07355   0.62785   0.12101
H          H       0.41928   0.11876   0.57884   0.11597
H          H       0.38815   0.10543   0.63954   0.12686
H          H       0.32147   0.14954   0.61413   0.12691
H          H       0.98837   0.92294   0.31052   0.12860
H          H       0.00302   0.91688   0.22557   0.09947
H          H       0.88819   0.96206   0.19268   0.10626
H          H       0.76045   0.01064   0.24607   0.10942
H          H       0.51930   0.08672   0.49904   0.11263
H          H       0.53297   0.12958   0.45551   0.11236
H          H       0.63007   0.15091   0.49162   0.12059
H          H       0.53171   0.15795   0.53201   0.11739
H          H       0.61478   0.10819   0.53581   0.12204
H          H       0.21384   0.15813   0.06210   0.09199
H          H       0.26156   0.16863   0.12955   0.12150
H          H       0.35711   0.01788   0.13430   0.12151
H          H       0.30511   0.01395   0.06659   0.09809
H          H       0.29350   0.10671   0.21073   0.10778
H          H       0.36636   0.13114   0.17229   0.10655
H          H       0.11861   0.28427   0.20239   0.12690
H          H       0.11607   0.20277   0.19248   0.09532
H          H       0.04626   0.18693   0.13649   0.11607
H          H       0.98333   0.25214   0.09101   0.10667
H          H       0.85204   0.49493   0.03010   0.15666
H          H       0.86508   0.53630   0.06883   0.15892
H          H       0.94246   0.41265   0.25343   0.09854
H          H       0.81556   0.42638   0.31967   0.12126
H          H       0.68169   0.43774   0.21812   0.12121
H          H       0.81440   0.42262   0.15617   0.09067
H          H       0.66821   0.45003   0.34652   0.10640
H          H       0.61337   0.47383   0.30532   0.10431
H          H       0.66254   0.38084   0.15034   0.12409
H          H       0.51451   0.42280   0.16119   0.09990
H          H       0.47125   0.47489   0.09789   0.11616
H          H       0.57801   0.48610   0.02519   0.11509
H          H       0.01352   0.45740   0.90627   0.12400
H          H       0.98071   0.42683   0.87230   0.12058
H          H       0.11608   0.38180   0.92111   0.11617
H          H       0.13209   0.39512   0.86043   0.12670
H          H       0.08428   0.35092   0.88588   0.12614
H          H       0.22182   0.57711   0.18968   0.12723
H          H       0.14597   0.58301   0.27478   0.09926
H          H       0.04241   0.53837   0.30756   0.10625
H          H       0.01642   0.48982   0.25422   0.10958
H          H       0.10476   0.41320   0.00121   0.11324
H          H       0.11795   0.37027   0.04465   0.11326
H          H       0.27233   0.34927   0.00862   0.12138
H          H       0.22168   0.34216   0.96807   0.11751
H          H       0.25835   0.39212   0.96454   0.12304
H          H       0.43368   0.34192   0.43786   0.09115
H          H       0.55944   0.33139   0.37058   0.12151
H          H       0.50924   0.48214   0.36565   0.12199
H          H       0.38553   0.48612   0.43324   0.10026
H          H       0.61064   0.39326   0.28938   0.10740
H          H       0.66944   0.36888   0.32788   0.10541
H          H       0.32034   0.29767   0.28384   0.12673
H          H       0.30750   0.30802   0.20242   0.09534
H          H       0.18172   0.36413   0.18688   0.11619
H          H       0.07354   0.40933   0.25236   0.10747
H          H       0.88283   0.46966   0.49514   0.15612
H          H       0.93463   0.43098   0.53652   0.15884
H          H       0.19563   0.24664   0.41298   0.09877
H          H       0.13488   0.18036   0.42650   0.12006
H          H       0.89968   0.28184   0.43784   0.11932
H          H       0.97051   0.34384   0.42291   0.09119
H          H       0.01459   0.15346   0.44995   0.10555
H          H       0.91853   0.19455   0.47376   0.10373
H          H       0.81284   0.34960   0.38086   0.12434
H          H       0.67559   0.33883   0.42277   0.09919
H          H       0.56920   0.40213   0.47484   0.11404
H          H       0.60364   0.47479   0.48605   0.11524
H          H       0.91978   0.59441   0.45769   0.12367
H          H       0.85323   0.62771   0.42682   0.12082
H          H       0.03725   0.57915   0.38184   0.11639
H          H       0.99253   0.63986   0.39517   0.12735
H          H       0.96993   0.61427   0.35109   0.12651
H          H       0.41115   0.31085   0.57705   0.12852
H          H       0.42027   0.22578   0.58324   0.09943
H          H       0.35043   0.19269   0.53823   0.10601
H          H       0.27171   0.24575   0.48928   0.10993
H          H       0.10612   0.49898   0.41328   0.11203
H          H       0.16215   0.45568   0.37012   0.11234
H          H       0.28082   0.49172   0.34902   0.12155
H          H       0.18958   0.53217   0.34194   0.11750
H          H       0.22284   0.53576   0.39183   0.12300
H          H       0.87139   0.06203   0.34193   0.09208
H          H       0.93000   0.12932   0.33136   0.12098
H          H       0.87498   0.13416   0.48213   0.12175
H          H       0.81856   0.06665   0.48615   0.09822
H          H       0.89996   0.21052   0.39315   0.10673
H          H       0.99726   0.17212   0.36879   0.10644
H          H       0.90236   0.20233   0.21605   0.12684
H          H       0.81853   0.19225   0.29754   0.09563
H          H       0.73283   0.13631   0.31325   0.11507
H          H       0.73504   0.09091   0.24794   0.10642
H          H       0.84795   0.02997   0.00523   0.15565
H          H       0.90164   0.06882   0.96365   0.15874
H          H       0.85517   0.25348   0.08726   0.09933
H          H       0.74186   0.31970   0.07355   0.12015
H          H       0.61943   0.21808   0.06222   0.11942
H          H       0.73716   0.15617   0.07731   0.09092
H          H       0.61811   0.34653   0.05007   0.10555
H          H       0.58695   0.30538   0.02622   0.10449
H          H       0.54427   0.15018   0.11928   0.12410
H          H       0.43794   0.16105   0.07750   0.09971
H          H       0.44661   0.09796   0.02524   0.11651
H          H       0.56436   0.02515   0.01409   0.11546
H          H       0.97244   0.90539   0.04206   0.12341
H          H       0.90836   0.87200   0.07284   0.12095
H          H      -0.00153   0.92084   0.11798   0.11610
H          H       0.02764   0.86009   0.10493   0.12642
H          H       0.93536   0.88580   0.14875   0.12563
H          H       0.29876   0.18968   0.92304   0.12787
H          H       0.22888   0.27473   0.91683   0.10006
H          H       0.08101   0.30762   0.96178   0.10649
H          H       0.00647   0.25440   0.01045   0.11010
H          H       0.01845   0.00095   0.08684   0.11277
H          H       0.98838   0.04429   0.12987   0.11303
H          H       0.12186   0.00816   0.15108   0.12165
H          H       0.06377   0.96782   0.15799   0.11754
H          H       0.15056   0.96416   0.10821   0.12302
H          H       0.27583   0.43787   0.15820   0.09211
H          H       0.39102   0.37055   0.16868   0.12166
H          H       0.49114   0.36595   0.01788   0.12135
H          H       0.37141   0.43353   0.01401   0.09776
H          H       0.50375   0.28941   0.10677   0.10698
H          H       0.53833   0.32779   0.13120   0.10678
C          C       0.47992   0.81437   0.65299   0.31958
C          C       0.45566   0.77619   0.67824  -0.22367
C          C       0.50849   0.73100   0.67248  -0.06410
C          C       0.58758   0.72179   0.64111  -0.13465
C          C       0.61227   0.75863   0.61582  -0.07402
C          C       0.56041   0.80515   0.62086  -0.17378
C          C       0.59228   0.84156   0.59308   0.43438
C          C       0.53907   0.96327   0.58329   0.44325
C          C       0.56678   0.00031   0.55867  -0.37572
C          C       0.45114   0.91798   0.74714   0.10668
C          C       0.47786   0.92607   0.78408  -0.20005
C          C       0.55462   0.93370   0.77477   0.16088
C          C       0.60187   0.93210   0.72780  -0.20546
C          C       0.57087   0.92368   0.69287   0.09318
C          C       0.58557   0.94257   0.81380  -0.19949
C          C       0.80570   0.90912   0.58204   0.29973
C          C       0.83014   0.90408   0.62349  -0.22601
C          C       0.88311   0.92771   0.62908  -0.06147
C          C       0.91341   0.95723   0.59366  -0.13233
C          C       0.88879   0.96311   0.55309  -0.08267
C          C       0.83513   0.93962   0.54642  -0.16574
C          C       0.81112   0.94839   0.50294   0.44223
C          C       0.69751   0.91350   0.44506   0.45987
C          C       0.66825   0.92242   0.40196  -0.21974
C          C       0.63290   0.88494   0.39188  -0.35178
C          C       0.13344   0.03051   0.67349   0.30937
C          C       0.06094   0.05827   0.70432  -0.22473
C          C       0.05334   0.06110   0.75169  -0.06515
C          C       0.11754   0.03625   0.77022  -0.13858
C          C       0.18922   0.00902   0.74038  -0.07402
C          C       0.19888   0.00517   0.69212  -0.18258
C          C       0.27455   0.97353   0.66375   0.43844
C          C       0.36399   0.92994   0.55125   0.45663
C          C       0.43666   0.89466   0.52133  -0.21451
C          C       0.41357   0.86794   0.48843  -0.35182
C          C       0.75400   0.87206   0.92086   0.09656
C          C       0.72734   0.86653   0.88304  -0.20331
C          C       0.68588   0.90605   0.86191   0.15965
C          C       0.67462   0.94992   0.88016  -0.20117
C          C       0.70307   0.95258   0.91814   0.09484
C          C       0.65497   0.90039   0.82157  -0.20028
C          C       0.94797   0.68533   0.84710   0.32026
C          C       0.91076   0.72347   0.82186  -0.22546
C          C       0.91245   0.76870   0.82775  -0.06309
C          C       0.95089   0.77795   0.85919  -0.13390
C          C       0.98717   0.74112   0.88444  -0.07539
C          C       0.98696   0.69459   0.87930  -0.17472
C          C       0.02728   0.65822   0.90712   0.43587
C          C       0.08524   0.53652   0.91724   0.44109
C          C       0.12597   0.49932   0.94141  -0.37363
C          C       0.11657   0.58177   0.75292   0.10654
C          C       0.18817   0.57390   0.71594  -0.20109
C          C       0.26327   0.56627   0.72522   0.16118
C          C       0.26206   0.56779   0.77220  -0.20623
C          C       0.18785   0.57601   0.80716   0.09331
C          C       0.34202   0.55743   0.68617  -0.20214
C          C       0.29697   0.59075   0.91798   0.30053
C          C       0.35763   0.59580   0.87648  -0.22659
C          C       0.43982   0.57233   0.87086  -0.06187
C          C       0.46433   0.54285   0.90628  -0.13364
C          C       0.40519   0.53681   0.94684  -0.08304
C          C       0.32139   0.56021   0.95355  -0.16692
C          C       0.26271   0.55144   0.99704   0.44488
C          C       0.05669   0.58640   0.05493   0.46014
C          C       0.99355   0.57725   0.09796  -0.21918
C          C       0.91062   0.61456   0.10815  -0.35152
C          C       0.83728   0.46960   0.82619   0.30726
C          C       0.82342   0.44175   0.79536  -0.22302
C          C       0.86604   0.43883   0.74800  -0.06517
C          C       0.92432   0.46346   0.72952  -0.13832
C          C       0.93904   0.49070   0.75936  -0.07339
C          C       0.89630   0.49480   0.80758  -0.18123
C          C       0.91194   0.52645   0.83601   0.44067
C          C       0.84522   0.57010   0.94850   0.45637
C          C       0.85289   0.60538   0.97844  -0.21541
C          C       0.77020   0.63192   0.01136  -0.35520
C          C       0.54720   0.62790   0.57915   0.09647
C          C       0.47717   0.63344   0.61690  -0.20239
C          C       0.45402   0.59392   0.63803   0.15951
C          C       0.50484   0.55004   0.61987  -0.20175
C          C       0.57392   0.54737   0.58193   0.09060
C          C       0.37715   0.59961   0.67834  -0.19840
C          C       0.79563   0.65289   0.68550   0.31986
C          C       0.73332   0.67800   0.72376  -0.22488
C          C       0.74108   0.67186   0.76895  -0.06333
C          C       0.81093   0.64034   0.77806  -0.13417
C          C       0.87232   0.61527   0.74111  -0.07565
C          C       0.86682   0.62064   0.69462  -0.17450
C          C       0.93487   0.59297   0.65814   0.43631
C          C       0.00220   0.58314   0.53633   0.43975
C          C       0.06677   0.55884   0.49911  -0.37201
C          C       0.86970   0.74706   0.58155   0.10506
C          C       0.90437   0.78404   0.57379  -0.19814
C          C       0.98869   0.77479   0.56624   0.16009
C          C       0.03442   0.72781   0.56769  -0.20331
C          C       0.99514   0.69284   0.57580   0.09162
C          C       0.02833   0.81388   0.55750  -0.20000
C          C       0.21464   0.58208   0.59073   0.29927
C          C       0.23400   0.62354   0.59580  -0.22548
C          C       0.31066   0.62913   0.57238  -0.06143
C          C       0.37052   0.59372   0.54293  -0.13433
C          C       0.35178   0.55319   0.53689  -0.08140
C          C       0.27464   0.54649   0.56025  -0.16745
C          C       0.25954   0.50299   0.55137   0.44576
C          C       0.11100   0.44518   0.58604   0.46105
C          C       0.09124   0.40191   0.57703  -0.21929
C          C       0.01868   0.39164   0.61447  -0.35357
C          C       0.66391   0.67346   0.46964   0.31051
C          C       0.61914   0.70418   0.44177  -0.22593
C          C       0.61430   0.75156   0.43878  -0.06437
C          C       0.65361   0.77020   0.46359  -0.13964
C          C       0.69791   0.74049   0.49102  -0.07339
C          C       0.70391   0.69221   0.49499  -0.18318
C          C       0.74821   0.66384   0.52658   0.43987
C          C       0.79386   0.55137   0.57036   0.45569
C          C       0.83140   0.52133   0.60557  -0.21232
C          C       0.78164   0.48836   0.63216  -0.35629
C          C       0.12650   0.92096   0.62789   0.09493
C          C       0.09414   0.88321   0.63346  -0.20072
C          C       0.09208   0.86208   0.59396   0.15707
C          C       0.12472   0.88027   0.55006  -0.20032
C          C       0.15600   0.91819   0.54736   0.09447
C          C       0.05554   0.82172   0.59969  -0.19808
C          C       0.13378   0.84714   0.81441   0.31804
C          C       0.13469   0.82195   0.77623  -0.22358
C          C       0.18151   0.82794   0.73102  -0.06466
C          C       0.22916   0.85938   0.72187  -0.13197
C          C       0.22867   0.88457   0.75875  -0.07536
C          C       0.18194   0.87937   0.80526  -0.17484
C          C       0.18570   0.90717   0.84173   0.43531
C          C       0.12226   0.91662   0.96353   0.44207
C          C       0.12499   0.94122   0.00067  -0.37393
C          C       0.19839   0.75284   0.91822   0.10491
C          C       0.26216   0.71590   0.92611  -0.19982
C          C       0.32968   0.72522   0.93367   0.16215
C          C       0.32990   0.77221   0.93220  -0.20598
C          C       0.26387   0.80714   0.92398   0.09507
C          C       0.39961   0.68615   0.94250  -0.20164
C          C       0.38700   0.91816   0.90916   0.30108
C          C       0.45267   0.87668   0.90401  -0.22559
C          C       0.51155   0.87100   0.92741  -0.06234
C          C       0.50674   0.90632   0.95695  -0.13509
C          C       0.44163   0.94689   0.96304  -0.08313
C          C       0.38109   0.95369   0.93970  -0.16700
C          C       0.31379   0.99722   0.94866   0.44466
C          C       0.14201   0.05515   0.91428   0.46176
C          C       0.06976   0.09829   0.92329  -0.21955
C          C       0.02461   0.10840   0.88569  -0.35105
C          C       0.80713   0.82612   0.03026   0.30858
C          C       0.76534   0.79538   0.05823  -0.22473
C          C       0.80493   0.74802   0.06125  -0.06565
C          C       0.88769   0.72949   0.03650  -0.13854
C          C       0.92965   0.75927   0.00912  -0.07436
C          C       0.89120   0.80750   0.00498  -0.18129
C          C       0.93849   0.83595   0.97332   0.43701
C          C       0.91551   0.94852   0.92979   0.45495
C          C       0.95800   0.97865   0.89449  -0.21525
C          C       0.90195   0.01165   0.86786  -0.35423
C          C       0.67500   0.57912   0.87200   0.09627
C          C       0.61052   0.61689   0.86649  -0.20317
C          C       0.54796   0.63797   0.90603   0.15981
C          C       0.55502   0.61969   0.94989  -0.20058
C          C       0.62144   0.58175   0.95252   0.09421
C          C       0.47683   0.67833   0.90035  -0.19822
C          C       0.52008   0.18563   0.34702   0.31930
C          C       0.54434   0.22381   0.32176  -0.22362
C          C       0.49151   0.26901   0.32752  -0.06392
C          C       0.41243   0.27821   0.35890  -0.13465
C          C       0.38774   0.24137   0.38418  -0.07413
C          C       0.43960   0.19485   0.37914  -0.17359
C          C       0.40772   0.15844   0.40692   0.43429
C          C       0.46093   0.03673   0.41671   0.44325
C          C       0.43322  -0.00031   0.44134  -0.37576
C          C       0.54887   0.08202   0.25287   0.10660
C          C       0.52215   0.07393   0.21592  -0.20010
C          C       0.44539   0.06630   0.22523   0.16117
C          C       0.39813   0.06790   0.27221  -0.20568
C          C       0.42914   0.07632   0.30713   0.09299
C          C       0.41444   0.05743   0.18620  -0.19975
C          C       0.19431   0.09088   0.41796   0.29969
C          C       0.16987   0.09592   0.37651  -0.22589
C          C       0.11690   0.07229   0.37092  -0.06169
C          C       0.08660   0.04277   0.40634  -0.13223
C          C       0.11122   0.03689   0.44691  -0.08263
C          C       0.16488   0.06038   0.45358  -0.16587
C          C       0.18889   0.05161   0.49706   0.44230
C          C       0.30249   0.08650   0.55494   0.46025
C          C       0.33175   0.07758   0.59804  -0.21994
C          C       0.36710   0.11506   0.60812  -0.35171
C          C       0.86656   0.96950   0.32652   0.30916
C          C       0.93907   0.94173   0.29568  -0.22458
C          C       0.94666   0.93890   0.24831  -0.06517
C          C       0.88246   0.96375   0.22978  -0.13838
C          C       0.81079   0.99098   0.25963  -0.07435
C          C       0.80112   0.99483   0.30789  -0.18247
C          C       0.72545   0.02647   0.33625   0.43840
C          C       0.63602   0.07006   0.44875   0.45623
C          C       0.56335   0.10534   0.47868  -0.21448
C          C       0.58643   0.13206   0.51157  -0.35222
C          C       0.24601   0.12794   0.07914   0.09665
C          C       0.27267   0.13347   0.11696  -0.20325
C          C       0.31413   0.09395   0.13809   0.15964
C          C       0.32538   0.05008   0.11984  -0.20113
C          C       0.29694   0.04742   0.08186   0.09480
C          C       0.34503   0.09961   0.17843  -0.20024
C          C       0.05204   0.31467   0.15290   0.32004
C          C       0.08925   0.27653   0.17814  -0.22495
C          C       0.08755   0.23130   0.17225  -0.06334
C          C       0.04911   0.22205   0.14082  -0.13376
C          C       0.01284   0.25888   0.11556  -0.07567
C          C       0.01305   0.30541   0.12070  -0.17464
C          C       0.97273   0.34178   0.09288   0.43583
C          C       0.91477   0.46348   0.08276   0.44131
C          C       0.87404   0.50068   0.05859  -0.37393
C          C       0.88343   0.41823   0.24708   0.10662
C          C       0.81183   0.42610   0.28406  -0.20099
C          C       0.73673   0.43373   0.27478   0.16116
C          C       0.73794   0.43221   0.22780  -0.20650
C          C       0.81215   0.42399   0.19284   0.09318
C          C       0.65799   0.44257   0.31383  -0.20215
C          C       0.70304   0.40925   0.08203   0.30034
C          C       0.64238   0.40420   0.12352  -0.22631
C          C       0.56019   0.42767   0.12914  -0.06194
C          C       0.53567   0.45715   0.09372  -0.13369
C          C       0.59481   0.46319   0.05316  -0.08305
C          C       0.67862   0.43979   0.04645  -0.16695
C          C       0.73729   0.44856   0.00296   0.44502
C          C       0.94331   0.41360   0.94507   0.46025
C          C       0.00646   0.42275   0.90204  -0.21929
C          C       0.08938   0.38544   0.89186  -0.35136
C          C       0.16273   0.53040   0.17381   0.30717
C          C       0.17658   0.55825   0.20464  -0.22294
C          C       0.13396   0.56117   0.25200  -0.06503
C          C       0.07568   0.53655   0.27048  -0.13842
C          C       0.06096   0.50930   0.24064  -0.07327
C          C       0.10371   0.50520   0.19242  -0.18138
C          C       0.08807   0.47355   0.16399   0.44069
C          C       0.15478   0.42990   0.05150   0.45627
C          C       0.14711   0.39462   0.02156  -0.21555
C          C       0.22981   0.36808   0.98865  -0.35514
C          C       0.45281   0.37210   0.42085   0.09653
C          C       0.52283   0.36656   0.38310  -0.20256
C          C       0.54599   0.40608   0.36197   0.15941
C          C       0.49516   0.44996   0.38013  -0.20149
C          C       0.42609   0.45263   0.41807   0.09250
C          C       0.62286   0.40040   0.32167  -0.19844
C          C       0.20438   0.34710   0.31452   0.31993
C          C       0.26669   0.32200   0.27626  -0.22494
C          C       0.25893   0.32814   0.23107  -0.06335
C          C       0.18908   0.35966   0.22196  -0.13411
C          C       0.12768   0.38474   0.25891  -0.07567
C          C       0.13318   0.37936   0.30540  -0.17478
C          C       0.06514   0.40703   0.34189   0.43636
C          C       0.99780   0.41684   0.46369   0.43986
C          C       0.93323   0.44115   0.50091  -0.37276
C          C       0.13031   0.25293   0.41845   0.10499
C          C       0.09564   0.21595   0.42621  -0.19819
C          C       0.01132   0.22521   0.43376   0.15995
C          C       0.96558   0.27219   0.43231  -0.20339
C          C       0.00486   0.30716   0.42420   0.09139
C          C       0.97167   0.18612   0.44250  -0.19976
C          C       0.78537   0.41792   0.40928   0.29949
C          C       0.76601   0.37646   0.40420  -0.22550
C          C       0.68935   0.37087   0.42762  -0.06139
C          C       0.62949   0.40628   0.45707  -0.13437
C          C       0.64823   0.44681   0.46311  -0.08145
C          C       0.72537   0.45351   0.43976  -0.16731
C          C       0.74047   0.49701   0.44864   0.44582
C          C       0.88901   0.55482   0.41397   0.46114
C          C       0.90877   0.59809   0.42298  -0.21910
C          C       0.98132   0.60837   0.38554  -0.35343
C          C       0.33610   0.32654   0.53037   0.30966
C          C       0.38089   0.29583   0.55823  -0.22479
C          C       0.38573   0.24845   0.56123  -0.06490
C          C       0.34641   0.22980   0.53643  -0.13963
C          C       0.30210   0.25950   0.50900  -0.07339
C          C       0.29610   0.30779   0.50502  -0.18321
C          C       0.25182   0.33616   0.47344   0.44093
C          C       0.20613   0.44862   0.42966   0.45545
C          C       0.16861   0.47866   0.39444  -0.21191
C          C       0.21836   0.51163   0.36784  -0.35598
C          C       0.87351   0.07904   0.37211   0.09522
C          C       0.90586   0.11679   0.36654  -0.20082
C          C       0.90792   0.13792   0.40605   0.15719
C          C       0.87529   0.11973   0.44994  -0.20022
C          C       0.84400   0.08181   0.45264   0.09436
C          C       0.94446   0.17828   0.40031  -0.19838
C          C       0.86622   0.15286   0.18560   0.31790
C          C       0.86532   0.17805   0.22378  -0.22349
C          C       0.81849   0.17207   0.26898  -0.06474
C          C       0.77085   0.14062   0.27814  -0.13195
C          C       0.77133   0.11544   0.24126  -0.07537
C          C       0.81806   0.12063   0.19475  -0.17474
C          C       0.81430   0.09284   0.15828   0.43515
C          C       0.87775   0.08338   0.03648   0.44167
C          C       0.87501   0.05878  -0.00066  -0.37387
C          C       0.80161   0.24716   0.08178   0.10490
C          C       0.73785   0.28410   0.07389  -0.19984
C          C       0.67033   0.27478   0.06633   0.16217
C          C       0.67011   0.22779   0.06780  -0.20593
C          C       0.73613   0.19287   0.07603   0.09467
C          C       0.60040   0.31385   0.05751  -0.20172
C          C       0.61300   0.08184   0.09084   0.30110
C          C       0.54733   0.12332   0.09599  -0.22534
C          C       0.48845   0.12901   0.07259  -0.06237
C          C       0.49326   0.09369   0.04305  -0.13520
C          C       0.55837   0.05312   0.03696  -0.08343
C          C       0.61891   0.04631   0.06031  -0.16667
C          C       0.68621   0.00278   0.05134   0.44445
C          C       0.85798   0.94485   0.08574   0.46202
C          C       0.93024   0.90172   0.07672  -0.21985
C          C       0.97539   0.89160   0.11432  -0.35089
C          C       0.19287   0.17388   0.96975   0.30860
C          C       0.23465   0.20462   0.94177  -0.22481
C          C       0.19506   0.25198   0.93876  -0.06541
C          C       0.11231   0.27051   0.96350  -0.13846
C          C       0.07035   0.24073   0.99088  -0.07448
C          C       0.10881   0.19250   0.99503  -0.18136
C          C       0.06151   0.16405   0.02669   0.43726
C          C       0.08449   0.05148   0.07022   0.45497
C          C       0.04201   0.02135   0.10551  -0.21536
C          C       0.09806   0.98835   0.13214  -0.35474
C          C       0.32501   0.42089   0.12800   0.09645
C          C       0.38949   0.38311   0.13351  -0.20319
C          C       0.45205   0.36203   0.09397   0.15979
C          C       0.44499   0.38031   0.05011  -0.20061
C          C       0.37857   0.41825   0.04748   0.09417
C          C       0.52318   0.32167   0.09966  -0.19951
N          N       0.54734   0.88695   0.59933  -0.28648
N          N       0.58441   0.91847   0.57220  -0.28267
N          N       0.49630   0.91702   0.70209  -0.25234
N          N       0.76096   0.92617   0.49481  -0.31395
N          N       0.74256   0.93833   0.45220  -0.32534
N          N       0.28446   0.96705   0.61825  -0.30086
N          N       0.35569   0.93241   0.59626  -0.33350
N          N       0.74158   0.91442   0.93862  -0.24077
N          N       0.03384   0.61281   0.90096  -0.28695
N          N       0.07530   0.58133   0.92813  -0.28165
N          N       0.11584   0.58256   0.79799  -0.25237
N          N       0.18227   0.57353   0.00504  -0.31584
N          N       0.13350   0.56132   0.04760  -0.32728
N          N       0.86918   0.53324   0.88138  -0.30308
N          N       0.88379   0.56788   0.90342  -0.33229
N          N       0.59482   0.58553   0.56145  -0.24138
N          N       0.93503   0.59924   0.61276  -0.28774
N          N       0.00337   0.57216   0.58110  -0.28049
N          N       0.91400   0.70201   0.58233  -0.25099
N          N       0.18701   0.49499   0.57329  -0.31441
N          N       0.18056   0.45251   0.56104  -0.32872
N          N       0.75079   0.61847   0.53347  -0.30362
N          N       0.78732   0.59647   0.56819  -0.33256
N          N       0.15647   0.93867   0.58550  -0.24072
N          N       0.14689   0.90078   0.88709  -0.28734
N          N       0.15655   0.92787   0.91875  -0.28083
N          N       0.19848   0.79790   0.91738  -0.25172
N          N       0.25539   0.00548   0.92654  -0.31595
N          N       0.19447   0.04802   0.93891  -0.32613
N          N       0.90288   0.88145   0.96683  -0.30176
N          N       0.95218   0.90351   0.93219  -0.33167
N          N       0.68039   0.56134   0.91435  -0.24077
N          N       0.45267   0.11305   0.40067  -0.28599
N          N       0.41559   0.08154   0.42780  -0.28299
N          N       0.50371   0.08298   0.29792  -0.25174
N          N       0.23904   0.07383   0.50519  -0.31390
N          N       0.25745   0.06167   0.54780  -0.32569
N          N       0.71555   0.03295   0.38175  -0.30069
N          N       0.64431   0.06759   0.40374  -0.33360
N          N       0.25842   0.08558   0.06138  -0.24110
N          N       0.96616   0.38719   0.09904  -0.28658
N          N       0.92471   0.41868   0.07187  -0.28208
N          N       0.88417   0.41744   0.20201  -0.25220
N          N       0.81773   0.42647   0.99496  -0.31594
N          N       0.86651   0.43869   0.95240  -0.32734
N          N       0.13083   0.46676   0.11863  -0.30266
N          N       0.11622   0.43212   0.09658  -0.33286
N          N       0.40519   0.41447   0.43856  -0.24141
N          N       0.06498   0.40076   0.38727  -0.28755
N          N       0.99664   0.42783   0.41893  -0.28048
N          N       0.08601   0.29799   0.41767  -0.25036
N          N       0.81300   0.50501   0.42672  -0.31457
N          N       0.81944   0.54750   0.43897  -0.32883
N          N       0.24920   0.38153   0.46655  -0.30381
N          N       0.21267   0.40353   0.43183  -0.33287
N          N       0.84354   0.06133   0.41450  -0.24120
N          N       0.85311   0.09922   0.11291  -0.28684
N          N       0.84346   0.07213   0.08125  -0.28111
N          N       0.80152   0.20210   0.08263  -0.25130
N          N       0.74461   0.99452   0.07347  -0.31579
N          N       0.80554   0.95198   0.06110  -0.32640
N          N       0.09712   0.11855   0.03318  -0.30184
N          N       0.04782   0.09649   0.06782  -0.33165
N          N       0.31961   0.43866   0.08565  -0.24104
O          O       0.42500   0.85630   0.66074  -0.48691
O          O       0.66430   0.83055   0.56263  -0.45489
O          O       0.46949   0.97130   0.61721  -0.49846
O          O       0.75724   0.88381   0.57859  -0.49979
O          O       0.83773   0.97788   0.47299  -0.46244
O          O       0.67648   0.88165   0.47564  -0.48326
O          O       0.13551   0.02964   0.62864  -0.48681
O          O       0.33102   0.95092   0.68321  -0.46310
O          O       0.31027   0.95761   0.53165  -0.49475
O          O       0.94300   0.64335   0.83926  -0.48618
O          O       0.05774   0.66941   0.93758  -0.45588
O          O       0.05663   0.52851   0.88371  -0.49781
O          O       0.21985   0.61619   0.92149  -0.50020
O          O       0.28868   0.52211   0.02714  -0.46372
O          O       0.03435   0.61855   0.02460  -0.48256
O          O       0.79325   0.47060   0.87098  -0.48632
O          O       0.96582   0.54879   0.81679  -0.46574
O          O       0.79960   0.54239   0.96813  -0.49377
O          O       0.78281   0.66084   0.64354  -0.48757
O          O       0.99589   0.56253   0.66920  -0.45555
O          O       0.94021   0.61679   0.52840  -0.49697
O          O       0.14090   0.57863   0.61605  -0.49977
O          O       0.31576   0.47294   0.52209  -0.46481
O          O       0.05834   0.47549   0.61821  -0.48412
O          O       0.66544   0.62856   0.47038  -0.48724
O          O       0.78302   0.68318   0.54875  -0.46390
O          O       0.76845   0.53168   0.54238  -0.49406
O          O       0.08681   0.83919   0.85632  -0.48550
O          O       0.22718   0.93770   0.83070  -0.45496
O          O       0.08697   0.88247   0.97143  -0.49888
O          O       0.33512   0.92165   0.88384  -0.50140
O          O       0.31073   0.02706   0.97816  -0.46423
O          O       0.15155   0.02461   0.88235  -0.48526
O          O       0.76437   0.87091   0.02920  -0.48655
O          O       0.01447   0.81664   0.95079  -0.46288
O          O       0.84223   0.96802   0.95755  -0.49315
O          O       0.57501   0.14370   0.33926  -0.48653
O          O       0.33571   0.16945   0.43737  -0.45502
O          O       0.53052   0.02870   0.38280  -0.49843
O          O       0.24277   0.11619   0.42141  -0.49939
O          O       0.16228   0.02212   0.52701  -0.46283
O          O       0.32352   0.11835   0.52436  -0.48292
O          O       0.86450   0.97036   0.37136  -0.48640
O          O       0.66899   0.04908   0.31679  -0.46341
O          O       0.68974   0.04239   0.46835  -0.49414
O          O       0.05700   0.35665   0.16074  -0.48571
O          O       0.94226   0.33059   0.06242  -0.45624
O          O       0.94337   0.47150   0.11629  -0.49745
O          O       0.78016   0.38381   0.07851  -0.49992
O          O       0.71133   0.47789   0.97286  -0.46408
O          O       0.96565   0.38146   0.97540  -0.48229
O          O       0.20675   0.52940   0.12902  -0.48603
O          O       0.03419   0.45121   0.18321  -0.46583
O          O       0.20040   0.45761   0.03187  -0.49337
O          O       0.21720   0.33916   0.35648  -0.48732
O          O       0.00412   0.43747   0.33082  -0.45561
O          O       0.05978   0.38318   0.47163  -0.49663
O          O       0.85911   0.42137   0.38396  -0.49955
O          O       0.68424   0.52706   0.47792  -0.46520
O          O       0.94168   0.52451   0.38181  -0.48385
O          O       0.33457   0.37144   0.52962  -0.48669
O          O       0.21702   0.31682   0.45125  -0.46480
O          O       0.23155   0.46832   0.45763  -0.49371
O          O       0.91319   0.16081   0.14369  -0.48499
O          O       0.77283   0.06230   0.16930  -0.45513
O          O       0.91304   0.11753   0.02857  -0.49842
O          O       0.66488   0.07835   0.11616  -0.50115
O          O       0.68927   0.97294   0.02185  -0.46464
O          O       0.84843   0.97539   0.11768  -0.48493
O          O       0.23563   0.12909   0.97080  -0.48631
O          O       0.98553   0.18336   0.04921  -0.46305
O          O       0.15777   0.03198   0.04245  -0.49313

