data_crystal

_audit_creation_method 'AiiDA-DDEC plugin'

_cell_length_a        23.69566
_cell_length_b        23.69189
_cell_length_c        23.70956

_cell_angle_alpha     109.49355
_cell_angle_beta     109.51726
_cell_angle_gamma     109.47112

_symmetry_space_group_name_Hall 'P 1'
_symmetry_space_group_name_H-M  'P 1'

loop_
_symmetry_equiv_pos_as_xyz
 'x,y,z'

loop_
_atom_site_label
_atom_site_type_symbol
_atom_site_fract_x
_atom_site_fract_y
_atom_site_fract_z
_atom_site_charge
Eu         Eu      0.05064   0.49998   0.49991   1.57786
Eu         Eu      0.44941   0.94945   0.44942   1.57776
Eu         Eu      0.50048   0.55274   0.00039   1.59690
Eu         Eu     -0.00000  -0.00012   0.05067   1.57914
Eu         Eu      0.94947   0.44947   0.94944   1.57716
Eu         Eu      0.55076   0.49989   0.49992   1.57892
Eu         Eu      0.49923   0.05210  -0.00059   1.59555
Eu         Eu     -0.00020  -0.00016   0.55062   1.57947
H          H       0.81465   0.30734   0.46340   0.26954
H          H       0.77557   0.15032   0.48091   0.07504
H          H       0.84032   0.14514   0.46127   0.08627
H          H       0.88501   0.20461   0.57627   0.11003
H          H       0.98991   0.28726   0.69042   0.11496
H          H       0.06332   0.40803   0.71932   0.10290
H          H       0.02853   0.44422   0.63224   0.11209
H          H       0.81042   0.41261   0.44688   0.11022
H          H       0.87001   0.40623   0.41909   0.11872
H          H       0.79738   0.26223   0.28951   0.14073
H          H       0.66050   0.19387   0.19071   0.14296
H          H       0.60266   0.25667   0.25331   0.11667
H          H       0.68548   0.14827   0.49257   0.26961
H          H       0.72447   0.20516   0.37526   0.07408
H          H       0.65955   0.12062   0.30511   0.08561
H          H       0.61540   0.19133   0.32023   0.10982
H          H       0.51084   0.20114   0.29818   0.11496
H          H       0.43756   0.15695   0.34561   0.10247
H          H       0.47194   0.10423   0.41627   0.11173
H          H       0.68934   0.13599   0.60205   0.11110
H          H       0.63006   0.04853   0.53594   0.11928
H          H       0.70354   0.99196   0.46568   0.13955
H          H       0.84059   0.03106   0.53513   0.14341
H          H       0.89776   0.15201   0.65518   0.11735
H          H       0.34450   0.35039   0.03604   0.27213
H          H       0.16967   0.29484   0.01921   0.07423
H          H       0.18429   0.37936   0.03893   0.08535
H          H       0.12873   0.30867   0.92415   0.10922
H          H       0.09702   0.29884   0.80987   0.11454
H          H       0.18887   0.34350   0.78115   0.10266
H          H       0.31238   0.39695   0.86861   0.11237
H          H       0.46761   0.36578   0.05451   0.10990
H          H       0.48743   0.45286   0.08265   0.11731
H          H       0.47472   0.50892   0.21261   0.13915
H          H       0.50474   0.46948   0.31019   0.14255
H          H       0.50273   0.34806   0.24563   0.11651
H          H       0.15558   0.19279   0.00724   0.27039
H          H       0.33032   0.34969   0.12524   0.07499
H          H       0.31587   0.35492   0.19520   0.08555
H          H       0.37149   0.29573   0.18067   0.10952
H          H       0.40309   0.21328   0.20299   0.11485
H          H       0.31127   0.09226   0.15497   0.10305
H          H       0.18781   0.05572   0.08369   0.11171
H          H       0.03344   0.08684   0.89798   0.11033
H          H       0.01250   0.09407   0.96428   0.11906
H          H       0.02589   0.23765   0.03406   0.13981
H          H       0.99544   0.30515   0.96469   0.14405
H          H       0.99624   0.24210   0.84476   0.11615
H          H       0.49265   0.18546   0.64830   0.27061
H          H       0.37486   0.22428   0.70487   0.07533
H          H       0.30473   0.15935   0.62031   0.08523
H          H       0.32016   0.11532   0.69132   0.10962
H          H       0.29845   0.01095   0.70136   0.11578
H          H       0.34581   0.93757   0.65696   0.10240
H          H       0.41642   0.97196   0.60430   0.11170
H          H       0.60204   0.18916   0.63591   0.11101
H          H       0.53588   0.12990   0.54847   0.11874
H          H       0.46566   0.20349   0.49196   0.13955
H          H       0.53516   0.34054   0.53110   0.14272
H          H       0.65531   0.39762   0.65191   0.11718
H          H       0.46410   0.31438   0.80872   0.27322
H          H       0.48068   0.27528   0.64993   0.07480
H          H       0.46134   0.34055   0.64587   0.08538
H          H       0.57641   0.38383   0.70507   0.10979
H          H       0.69018   0.48937   0.78745   0.11507
H          H       0.71848   0.56350   0.90770   0.10355
H          H       0.63099   0.52948   0.94346   0.11380
H          H       0.44626   0.31176   0.91356   0.11149
H          H       0.41801   0.37070   0.90539   0.11883
H          H       0.28824   0.29676   0.76226   0.14053
H          H       0.19041   0.15955   0.69424   0.14362
H          H       0.25461   0.10263   0.75712   0.11801
H          H       0.00732   0.65557   0.69280   0.27070
H          H       0.12545   0.83039   0.84961   0.07458
H          H       0.19528   0.81569   0.85472   0.08596
H          H       0.18093   0.87138   0.79578   0.10981
H          H       0.20329   0.90310   0.71353   0.11457
H          H       0.15511   0.81128   0.59244   0.10272
H          H       0.08370   0.68785   0.55578   0.11150
H          H       0.89796   0.53335   0.58683   0.11024
H          H       0.96439   0.51247   0.59425   0.11819
H          H       0.03410   0.52593   0.73773   0.13946
H          H       0.96467   0.49570   0.80522   0.14394
H          H       0.84473   0.49662   0.74211   0.11683
H          H       0.03765   0.84440   0.85224   0.27004
H          H       0.01927   0.66960   0.79496   0.07462
H          H       0.03919   0.68439   0.87951   0.08536
H          H       0.92412   0.62862   0.80903   0.10980
H          H       0.80998   0.59694   0.79961   0.11504
H          H       0.78098   0.68880   0.84370   0.10346
H          H       0.86811   0.81220   0.89610   0.11189
H          H       0.05356   0.96655   0.86502   0.10981
H          H       0.08235   0.98755   0.95238   0.11841
H          H       0.21249   0.97418   0.00802   0.14056
H          H       0.30962   0.00370   0.96793   0.14282
H          H       0.24487   0.00248   0.84712   0.11739
H          H       0.69238   0.50761   0.15442   0.27044
H          H       0.84922   0.62493   0.32993   0.07482
H          H       0.85454   0.69489   0.31540   0.08534
H          H       0.79527   0.68000   0.37118   0.10986
H          H       0.71276   0.70211   0.40284   0.11531
H          H       0.59193   0.65468   0.31101   0.10260
H          H       0.55553   0.58398   0.18756   0.11152
H          H       0.58574   0.39933   0.03136   0.11039
H          H       0.59522   0.46685   0.01185   0.11768
H          H       0.73757   0.53427   0.02444   0.14074
H          H       0.80529   0.46453   0.99538   0.14370
H          H       0.74191   0.34518   0.99708   0.11633
H          H       0.85193   0.53725   0.34407   0.26996
H          H       0.79448   0.51873   0.16945   0.07569
H          H       0.87899   0.53855   0.18392   0.08589
H          H       0.80863   0.42365   0.12846   0.11040
H          H       0.79930   0.30954   0.09681   0.11466
H          H       0.84354   0.28056   0.18864   0.10299
H          H       0.89596   0.36768   0.31197   0.11197
H          H       0.86419   0.55324   0.46581   0.11040
H          H       0.95168   0.58161   0.48728   0.11870
H          H       0.00825   0.71171   0.47391   0.13969
H          H       0.96933   0.80975   0.50432   0.14367
H          H       0.84833   0.74577   0.50311   0.11680
H          H       0.64782   0.99231   0.68535   0.27051
H          H       0.70536   0.87535   0.72452   0.07505
H          H       0.62092   0.80494   0.65970   0.08610
H          H       0.69123   0.81993   0.61525   0.10955
H          H       0.70107   0.79800   0.51084   0.11498
H          H       0.65698   0.84562   0.43768   0.10239
H          H       0.60425   0.91630   0.47202   0.11157
H          H       0.63482   0.10160   0.68833   0.10992
H          H       0.54749   0.03498   0.62962   0.11738
H          H       0.49270   0.96537   0.70442   0.14041
H          H       0.53322   0.03508   0.84179   0.14091
H          H       0.65296   0.15594   0.89755   0.11702
H          H       0.80740   0.96322   0.81459   0.26956
H          H       0.65037   0.98089   0.77564   0.07455
H          H       0.64539   0.96110   0.84034   0.08574
H          H       0.70474   0.07618   0.88498   0.10954
H          H       0.78727   0.19021   0.99009   0.11437
H          H       0.90805   0.21906   0.06350   0.10268
H          H       0.94434   0.13206   0.02850   0.11185
H          H       0.91289   0.94666   0.81074   0.11064
H          H       0.90601   0.91862   0.87000   0.11983
H          H       0.76235   0.78869   0.79674   0.14004
H          H       0.69435   0.69036   0.65983   0.14365
H          H       0.75697   0.75388   0.60251   0.11658
H          H       0.18553   0.49263   0.14836   0.26973
H          H       0.22461   0.37528   0.20534   0.07487
H          H       0.15972   0.30499   0.12091   0.08616
H          H       0.11524   0.31987   0.19110   0.10956
H          H       0.01071   0.29786   0.20080   0.11510
H          H       0.93751   0.34551   0.15678   0.10225
H          H       0.97198   0.41636   0.10431   0.11157
H          H       0.18964   0.60231   0.13643   0.11046
H          H       0.13002   0.53637   0.04896   0.11880
H          H       0.20295   0.46501   0.99225   0.14054
H          H       0.33989   0.53392   0.03079   0.14269
H          H       0.39748   0.65478   0.15106   0.11607
H          H       0.31466   0.46353   0.30743   0.26942
H          H       0.27565   0.48090   0.15038   0.07419
H          H       0.34046   0.46112   0.14543   0.08585
H          H       0.38480   0.57640   0.20482   0.10974
H          H       0.48980   0.69059   0.28749   0.11481
H          H       0.56330   0.71937   0.40813   0.10315
H          H       0.52855   0.63216   0.44422   0.11217
H          H       0.31071   0.44678   0.41265   0.11023
H          H       0.37000   0.41869   0.40579   0.11915
H          H       0.29685   0.28868   0.26238   0.14008
H          H       0.15987   0.19036   0.19444   0.14306
H          H       0.10240   0.25407   0.25671   0.11675
H          H       0.65513   0.00555   0.19120   0.27316
H          H       0.83008   0.12495   0.34955   0.07419
H          H       0.81557   0.19492   0.35481   0.08458
H          H       0.87120   0.17975   0.29561   0.10957
H          H       0.90285   0.20169   0.21308   0.11569
H          H       0.81100   0.15445   0.09240   0.10277
H          H       0.68744   0.08440   0.05616   0.11236
H          H       0.53181   0.89801   0.08634   0.10926
H          H       0.51234   0.96550   0.09507   0.11683
H          H       0.52516   0.03397   0.23779   0.13890
H          H       0.49548   0.96445   0.30538   0.14329
H          H       0.49733   0.84501   0.24256   0.11615
H          H       0.84425   0.03732   0.35193   0.27010
H          H       0.66952   0.01902   0.29489   0.07583
H          H       0.68411   0.03874   0.37937   0.08564
H          H       0.62859   0.92406   0.30933   0.11019
H          H       0.59692   0.80999   0.30005   0.11477
H          H       0.68869   0.78078   0.34373   0.10296
H          H       0.81208   0.86771   0.39585   0.11154
H          H       0.96603   0.05324   0.36425   0.11058
H          H       0.98746   0.08148   0.45166   0.11888
H          H       0.97386   0.21163   0.50819   0.13991
H          H       0.00457   0.30979   0.46956   0.14390
H          H       0.00394   0.24608   0.34889   0.11634
H          H       0.50684   0.69240   0.65549   0.27117
H          H       0.62540   0.84974   0.83028   0.07434
H          H       0.69537   0.85492   0.81577   0.08507
H          H       0.68015   0.79551   0.87163   0.10942
H          H       0.70203   0.71281   0.90316   0.11610
H          H       0.65461   0.59204   0.81116   0.10270
H          H       0.58384   0.55581   0.68779   0.11191
H          H       0.39802   0.58669   0.53327   0.11032
H          H       0.46452   0.59412   0.51254   0.11833
H          H       0.53418   0.73763   0.52596   0.13960
H          H       0.46478   0.80521   0.49566   0.14395
H          H       0.34478   0.74212   0.49635   0.11630
H          H       0.53634   0.85075   0.84490   0.27328
H          H       0.51920   0.79471   0.66967   0.07457
H          H       0.53874   0.87925   0.68440   0.08512
H          H       0.42389   0.80784   0.62872   0.10966
H          H       0.30994   0.79897   0.59705   0.11498
H          H       0.28146   0.84446   0.68884   0.10296
H          H       0.36883   0.89806   0.81224   0.11333
H          H       0.55393   0.86609   0.96766   0.11072
H          H       0.58232   0.95325   0.98760   0.11911
H          H       0.71204   0.00862   0.97409   0.14030
H          H       0.80971   0.96918   0.00421   0.14403
H          H       0.74548   0.84845   0.00350   0.11774
H          H       0.99243   0.64817   0.18549   0.27014
H          H       0.87473   0.70488   0.22420   0.07499
H          H       0.80470   0.62032   0.15924   0.08630
H          H       0.81937   0.69049   0.11490   0.10944
H          H       0.79724   0.70025   0.01046   0.11488
H          H       0.84531   0.65666   0.93754   0.10267
H          H       0.91640   0.60435   0.97215   0.11162
H          H       0.10205   0.63590   0.18932   0.11104
H          H       0.03586   0.54844   0.13007   0.11888
H          H       0.96571   0.49198   0.20365   0.13957
H          H       0.03524   0.53123   0.34066   0.14288
H          H       0.15534   0.65213   0.39768   0.11779
H          H       0.96301   0.80719   0.31442   0.27016
H          H       0.98060   0.65005   0.27554   0.07456
H          H       0.96079   0.64504   0.34022   0.08531
H          H       0.07610   0.70458   0.38481   0.10987
H          H       0.19023   0.78732   0.48978   0.11508
H          H       0.21897   0.90806   0.56312   0.10327
H          H       0.13166   0.94404   0.52821   0.11204
H          H       0.94636   0.91289   0.31104   0.11091
H          H       0.91783   0.90516   0.36975   0.11929
H          H       0.78783   0.76176   0.29566   0.14049
H          H       0.69036   0.69374   0.15839   0.14276
H          H       0.75481   0.75678   0.10186   0.11718
H          H       0.30782   0.81552   0.96268   0.27057
H          H       0.15075   0.77585   0.98087   0.07488
H          H       0.14556   0.84057   0.96113   0.08568
H          H       0.20502   0.88490   0.07624   0.11034
H          H       0.28767   0.98965   0.19050   0.11462
H          H       0.40836   0.06334   0.21942   0.10345
H          H       0.44444   0.02899   0.13215   0.11187
H          H       0.41404   0.81360   0.94584   0.11084
H          H       0.40464   0.87171   0.91691   0.11746
H          H       0.26242   0.79706   0.78718   0.14046
H          H       0.19443   0.65956   0.69011   0.14296
H          H       0.25739   0.60328   0.75514   0.11659
H          H       0.14833   0.68549   0.99239   0.27000
H          H       0.20553   0.72462   0.87539   0.07534
H          H       0.12107   0.65979   0.80504   0.08588
H          H       0.19149   0.61538   0.82019   0.10964
H          H       0.20113   0.51077   0.79810   0.11506
H          H       0.15689   0.43747   0.84559   0.10239
H          H       0.10430   0.47200   0.91630   0.11190
H          H       0.13617   0.68939   0.10194   0.11094
H          H       0.04867   0.63018   0.03589   0.11867
H          H       0.99200   0.70364   0.96575   0.13978
H          H       0.03119   0.84072   0.03521   0.14342
H          H       0.15230   0.89788   0.15510   0.11756
H          H       0.35254   0.34462   0.53771   0.27067
H          H       0.29470   0.16972   0.51885   0.07512
H          H       0.37916   0.18401   0.53867   0.08562
H          H       0.30897   0.12858   0.42389   0.11005
H          H       0.29938   0.09683   0.30974   0.11488
H          H       0.34346   0.18862   0.28073   0.10280
H          H       0.39600   0.31206   0.36779   0.11170
H          H       0.36561   0.46694   0.55354   0.10962
H          H       0.45293   0.48762   0.58232   0.11742
H          H       0.50757   0.47289   0.71186   0.13963
H          H       0.46725   0.50213   0.80881   0.14049
H          H       0.34763   0.50331   0.74477   0.11693
H          H       0.19258   0.15541   0.50711   0.27081
H          H       0.34948   0.33017   0.62501   0.07429
H          H       0.35489   0.31569   0.69497   0.08571
H          H       0.29565   0.37138   0.68045   0.10948
H          H       0.21327   0.40303   0.70287   0.11411
H          H       0.09235   0.31118   0.65514   0.10270
H          H       0.05574   0.18774   0.58384   0.11182
H          H       0.08664   0.03318   0.39789   0.11035
H          H       0.09403   0.01235   0.46430   0.11848
H          H       0.23757   0.02577   0.53402   0.13991
H          H       0.30527   0.99568   0.46478   0.14420
H          H       0.24225   0.99665   0.34493   0.11663
C          C       0.80202   0.16223   0.45272  -0.02758
C          C       0.89512   0.27866   0.54082   0.22865
C          C       0.91578   0.25716   0.58840  -0.22428
C          C       0.97573   0.30396   0.65291  -0.02851
C          C       0.01669   0.37145   0.66918  -0.10514
C          C       0.99714   0.39206   0.62083  -0.07386
C          C       0.93568   0.34705   0.55666  -0.15810
C          C       0.91718   0.37613   0.51122   0.50851
C          C       0.82557   0.37655   0.42227  -0.08507
C          C       0.76570   0.32164   0.35240   0.16694
C          C       0.75725   0.27173   0.29477  -0.23505
C          C       0.68595   0.23580   0.24315  -0.17200
C          C       0.65506   0.26591   0.27219   0.04050
C          C       0.69788   0.15041   0.36051  -0.02449
C          C       0.60499   0.14555   0.38388   0.22867
C          C       0.58457   0.17271   0.34190  -0.22458
C          C       0.52484   0.17759   0.32888  -0.02981
C          C       0.48393   0.15304   0.35543  -0.10537
C          C       0.50327   0.12405   0.39544  -0.07248
C          C       0.56449   0.12097   0.41173  -0.15765
C          C       0.58300   0.09405   0.45931   0.50967
C          C       0.67449   0.09634   0.55093  -0.08665
C          C       0.73460   0.08677   0.55633   0.16385
C          C       0.74342   0.03767   0.51529  -0.23084
C          C       0.81484   0.05789   0.55106  -0.17465
C          C       0.84542   0.11802   0.61184   0.03799
C          C       0.20985   0.34956   0.04752  -0.02593
C          C       0.23833   0.35447   0.95973   0.22739
C          C       0.16913   0.32724   0.91202  -0.22367
C          C       0.15132   0.32244   0.84749  -0.03029
C          C       0.20255   0.34726   0.83135  -0.10630
C          C       0.27166   0.37657   0.87991  -0.07390
C          C       0.29090   0.37945   0.94408  -0.15889
C          C       0.36559   0.40715   0.99009   0.51076
C          C       0.45510   0.40463   0.07888  -0.08378
C          C       0.46962   0.41382   0.14833   0.16013
C          C       0.47815   0.46299   0.20648  -0.23367
C          C       0.49352   0.44255   0.25749  -0.17310
C          C       0.49352   0.38216   0.22749   0.03594
C          C       0.29023   0.33777   0.13980  -0.02572
C          C       0.26189   0.22142   0.11641   0.22845
C          C       0.33105   0.24312   0.15874  -0.22361
C          C       0.34883   0.19641   0.17189  -0.02873
C          C       0.29761   0.12880   0.14504  -0.10649
C          C       0.22857   0.10798   0.10469  -0.07320
C          C       0.20932   0.15295   0.08836  -0.15755
C          C       0.13475   0.12382   0.04076   0.50885
C          C       0.04515   0.12336   0.94910  -0.08607
C          C       0.03008   0.17799   0.94358   0.16476
C          C       0.02197   0.22787   0.98452  -0.23074
C          C       0.00630   0.26342   0.94875  -0.17506
C          C       0.00564   0.23313   0.88805   0.04069
C          C       0.36016   0.19769   0.65016  -0.02541
C          C       0.38376   0.10492   0.64548   0.22828
C          C       0.34190   0.08453   0.67273  -0.22389
C          C       0.32904   0.02487   0.67770  -0.02873
C          C       0.35559   0.98395   0.65310  -0.10661
C          C       0.39556   0.00329   0.62409  -0.07192
C          C       0.41170   0.06446   0.62094  -0.15845
C          C       0.45919   0.08293   0.59394   0.51026
C          C       0.55090   0.17435   0.59625  -0.08656
C          C       0.55637   0.23447   0.58666   0.16437
C          C       0.51533   0.24335   0.53762  -0.23184
C          C       0.55114   0.31476   0.55787  -0.17353
C          C       0.61196   0.34528   0.61792   0.03810
C          C       0.45262   0.30176   0.66231  -0.02574
C          C       0.54052   0.39454   0.77872   0.22832
C          C       0.58826   0.41502   0.75737  -0.22412
C          C       0.65253   0.47531   0.80401  -0.02939
C          C       0.66843   0.51669   0.87118  -0.10626
C          C       0.61988   0.49740   0.89163  -0.07282
C          C       0.55590   0.43563   0.84674  -0.15989
C          C       0.51006   0.41736   0.87549   0.51006
C          C       0.42166   0.32618   0.87672  -0.08507
C          C       0.35208   0.26586   0.82182   0.16575
C          C       0.29407   0.25686   0.77184  -0.23223
C          C       0.24304   0.18539   0.73599  -0.17362
C          C       0.27281   0.15496   0.76620   0.04148
C          C       0.13988   0.79017   0.83767  -0.02580
C          C       0.11640   0.76183   0.72138   0.22779
C          C       0.15886   0.83097   0.74315  -0.22322
C          C       0.17205   0.84881   0.69652  -0.02859
C          C       0.14514   0.79762   0.62892  -0.10611
C          C       0.10472   0.72856   0.60804  -0.07325
C          C       0.08833   0.70928   0.65292  -0.15745
C          C       0.04069   0.63469   0.62372   0.50914
C          C       0.94914   0.54514   0.62341  -0.08533
C          C       0.94364   0.53020   0.67807   0.16349
C          C       0.98455   0.52209   0.72797  -0.23043
C          C       0.94874   0.50654   0.76349  -0.17481
C          C       0.88803   0.50592   0.73315   0.03921
C          C       0.04762   0.70986   0.84963  -0.02555
C          C       0.95963   0.73820   0.85461   0.22888
C          C       0.91203   0.66904   0.82764  -0.22398
C          C       0.84749   0.65123   0.82295  -0.02959
C          C       0.83121   0.70243   0.84748  -0.10601
C          C       0.87956   0.77146   0.87629  -0.07289
C          C       0.94377   0.79074   0.87920  -0.15835
C          C       0.98916   0.86530   0.90613   0.50930
C          C       0.07856   0.95480   0.90431  -0.08426
C          C       0.14802   0.96955   0.91332   0.16362
C          C       0.20624   0.97772   0.96215  -0.23274
C          C       0.25699   0.99292   0.94145  -0.17246
C          C       0.22689   0.99329   0.88131   0.04070
C          C       0.83734   0.63945   0.28979  -0.02402
C          C       0.72103   0.61611   0.26157   0.22886
C          C       0.74267   0.65815   0.33076  -0.22371
C          C       0.69595   0.67124   0.34856  -0.02939
C          C       0.62844   0.64473   0.29736  -0.10580
C          C       0.60770   0.60471   0.22832  -0.07249
C          C       0.65263   0.58838   0.20904  -0.15764
C          C       0.62357   0.54143   0.13433   0.51282
C          C       0.62325   0.45052   0.04403  -0.08296
C          C       0.67795   0.44447   0.02948   0.16254
C          C       0.72791   0.48495   0.02117  -0.23235
C          C       0.76353   0.44898   0.00625  -0.17428
C          C       0.73314   0.38860   0.00616   0.03857
C          C       0.84924   0.54707   0.20953  -0.02610
C          C       0.85439   0.45920   0.23800   0.22854
C          C       0.82734   0.41157   0.16887  -0.22467
C          C       0.82267   0.34704   0.15108  -0.02894
C          C       0.84727   0.33077   0.20227  -0.10644
C          C       0.87612   0.37915   0.27128  -0.07276
C          C       0.87905   0.44340   0.29055  -0.15778
C          C       0.90597   0.48885   0.36509   0.50908
C          C       0.90383   0.57814   0.45441  -0.08497
C          C       0.91336   0.64782   0.46937   0.16446
C          C       0.96253   0.70587   0.47767  -0.23122
C          C       0.94241   0.75709   0.49329  -0.17316
C          C       0.88222   0.72739   0.49372   0.03945
C          C       0.65055   0.86040   0.69790  -0.02666
C          C       0.64549   0.88370   0.60493   0.22853
C          C       0.67264   0.84171   0.58450  -0.22439
C          C       0.67756   0.82875   0.52484  -0.02912
C          C       0.65306   0.85541   0.48400  -0.10544
C          C       0.62405   0.89543   0.50333  -0.07290
C          C       0.62093   0.91164   0.56448  -0.15795
C          C       0.59390   0.95917   0.58288   0.50988
C          C       0.59560   0.05047   0.67401  -0.08445
C          C       0.58662   0.05627   0.73445   0.16228
C          C       0.53831   0.01519   0.74395  -0.23360
C          C       0.55920   0.05124   0.81553  -0.17663
C          C       0.61881   0.11231   0.84544   0.03649
C          C       0.66239   0.95265   0.80201  -0.02633
C          C       0.77882   0.04073   0.89508   0.22913
C          C       0.75728   0.08828   0.91578  -0.22451
C          C       0.80401   0.15272   0.97584  -0.02900
C          C       0.87148   0.16896   0.01681  -0.10567
C          C       0.89217   0.12068   0.99715  -0.07312
C          C       0.84723   0.05656   0.93561  -0.15800
C          C       0.87636   0.01115   0.91708   0.50864
C          C       0.87658   0.92200   0.82560  -0.08726
C          C       0.82173   0.85224   0.76555   0.16400
C          C       0.77191   0.79434   0.75681  -0.23199
C          C       0.73609   0.74296   0.68548  -0.17419
C          C       0.76615   0.77243   0.65484   0.03989
C          C       0.19799   0.36044   0.15059  -0.02679
C          C       0.10500   0.38378   0.14556   0.22868
C          C       0.08451   0.34170   0.17259  -0.22452
C          C       0.02478   0.32871   0.17742  -0.02879
C          C       0.98391   0.35536   0.15295  -0.10534
C          C       0.00331   0.39548   0.12408  -0.07268
C          C       0.06454   0.41173   0.12104  -0.15801
C          C       0.08301   0.45930   0.09410   0.50932
C          C       0.17452   0.55114   0.09659  -0.08600
C          C       0.23443   0.55628   0.08671   0.16612
C          C       0.24297   0.51479   0.03766  -0.23333
C          C       0.31429   0.55032   0.05754  -0.17334
C          C       0.34511   0.61145   0.11740   0.04307
C          C       0.30209   0.45269   0.16240  -0.02660
C          C       0.39509   0.54084   0.27877   0.22866
C          C       0.41567   0.58848   0.25731  -0.22438
C          C       0.47565   0.65300   0.30411  -0.02968
C          C       0.51668   0.66921   0.37152  -0.10521
C          C       0.49717   0.62081   0.39209  -0.07353
C          C       0.43569   0.55665   0.34709  -0.15702
C          C       0.41719   0.51118   0.37612   0.50783
C          C       0.32561   0.42212   0.37638  -0.08598
C          C       0.26554   0.35236   0.32149   0.16451
C          C       0.25686   0.29439   0.27184  -0.23359
C          C       0.18547   0.24303   0.23600  -0.17302
C          C       0.15477   0.27257   0.26591   0.03831
C          C       0.78995   0.13950   0.33771  -0.02473
C          C       0.76154   0.11599   0.22143   0.22860
C          C       0.83077   0.15795   0.24305  -0.22512
C          C       0.84855   0.17099   0.19634  -0.03092
C          C       0.79731   0.14454   0.12890  -0.10660
C          C       0.72818   0.10474   0.10821  -0.07406
C          C       0.70894   0.08842   0.15315  -0.15860
C          C       0.63419   0.04151   0.12436   0.50944
C          C       0.54454   0.94941   0.12345  -0.08252
C          C       0.53004   0.94393   0.17833   0.16137
C          C       0.52170   0.98457   0.22812  -0.23378
C          C       0.50651   0.94874   0.26376  -0.17494
C          C       0.50639   0.88831   0.23361   0.03703
C          C       0.70967   0.04728   0.34960  -0.02623
C          C       0.73813   0.95940   0.35463   0.22897
C          C       0.66900   0.91190   0.32784  -0.22509
C          C       0.65118   0.84740   0.32320  -0.02857
C          C       0.70236   0.83101   0.34752  -0.10629
C          C       0.77139   0.87926   0.37615  -0.07262
C          C       0.79067   0.94350   0.37909  -0.15760
C          C       0.86521   0.98895   0.40598   0.50906
C          C       0.95465   0.07816   0.40390  -0.08526
C          C       0.96977   0.14790   0.41355   0.16437
C          C       0.97786   0.20587   0.46263  -0.23106
C          C       0.99368   0.25718   0.44268  -0.17425
C          C       0.99441   0.22762   0.38267   0.04083
C          C       0.63994   0.83778   0.79018  -0.02522
C          C       0.61639   0.72144   0.76200   0.22756
C          C       0.65834   0.74295   0.83117  -0.22294
C          C       0.67130   0.69612   0.84889  -0.02969
C          C       0.64475   0.62865   0.79760  -0.10598
C          C       0.60467   0.60799   0.72857  -0.07336
C          C       0.58847   0.65304   0.70941  -0.15739
C          C       0.54108   0.62400   0.63482   0.50918
C          C       0.44920   0.62329   0.54510  -0.08641
C          C       0.44364   0.67793   0.53006   0.16389
C          C       0.48459   0.72785   0.52203  -0.23077
C          C       0.44881   0.76343   0.50643  -0.17486
C          C       0.38807   0.73311   0.50573   0.03898
C          C       0.54746   0.84942   0.70987  -0.02599
C          C       0.45970   0.85438   0.73833   0.22815
C          C       0.41196   0.82697   0.66913  -0.22390
C          C       0.34757   0.82264   0.65133  -0.03035
C          C       0.33158   0.84794   0.70253  -0.10510
C          C       0.38010   0.87728   0.77162  -0.07278
C          C       0.44417   0.87978   0.79088  -0.15983
C          C       0.49000   0.90738   0.86550   0.51050
C          C       0.57860   0.90499   0.95535  -0.08339
C          C       0.64812   0.91412   0.97010   0.16382
C          C       0.70613   0.96296   0.97800  -0.23096
C          C       0.75711   0.94253   0.99342  -0.17378
C          C       0.72730   0.88249   0.99411   0.04167
C          C       0.86011   0.65016   0.19766  -0.02595
C          C       0.88364   0.64534   0.10492   0.22840
C          C       0.84136   0.67217   0.08429  -0.22351
C          C       0.82829   0.67703   0.02459  -0.02875
C          C       0.85515   0.65277   0.98389  -0.10624
C          C       0.89541   0.62401   0.00337  -0.07255
C          C       0.91169   0.62093   0.06456  -0.15800
C          C       0.95934   0.59406   0.08306   0.51016
C          C       0.05090   0.59627   0.17450  -0.08678
C          C       0.05636   0.58672   0.23459   0.16424
C          C       0.01535   0.53770   0.24349  -0.23120
C          C       0.05118   0.55799   0.31488  -0.17363
C          C       0.11199   0.61808   0.34537   0.03803
C          C       0.95233   0.66204   0.30187  -0.02583
C          C       0.04044   0.77850   0.39490   0.22907
C          C       0.08812   0.75709   0.41559  -0.22442
C          C       0.15263   0.80394   0.47557  -0.02968
C          C       0.16881   0.87139   0.51652  -0.10531
C          C       0.12038   0.89192   0.49690  -0.07308
C          C       0.05622   0.84686   0.43543  -0.15815
C          C       0.01078   0.87595   0.41694   0.50855
C          C       0.92160   0.87619   0.32548  -0.08710
C          C       0.85206   0.82130   0.26509   0.16502
C          C       0.79391   0.77138   0.25590  -0.23353
C          C       0.74299   0.73557   0.18438  -0.17294
C          C       0.77296   0.76579   0.15413   0.04061
C          C       0.16265   0.80226   0.95264  -0.02595
C          C       0.27904   0.89531   0.04076   0.22838
C          C       0.25756   0.91575   0.08839  -0.22595
C          C       0.30435   0.97565   0.15295  -0.02773
C          C       0.37179   0.01676   0.16924  -0.10671
C          C       0.39234   0.99748   0.12082  -0.07178
C          C       0.34736   0.93611   0.05659  -0.15765
C          C       0.37634   0.91819   0.01092   0.51183
C          C       0.37660   0.82738   0.92109  -0.08303
C          C       0.32179   0.76667   0.85175   0.16200
C          C       0.27193   0.75729   0.79346  -0.23210
C          C       0.23613   0.68565   0.74281  -0.17392
C          C       0.26634   0.65554   0.77307   0.03821
C          C       0.15073   0.69802   0.86047  -0.02652
C          C       0.14564   0.60500   0.88378   0.22826
C          C       0.17281   0.58455   0.84185  -0.22316
C          C       0.17764   0.52480   0.82885  -0.03044
C          C       0.15308   0.48390   0.85542  -0.10515
C          C       0.12412   0.50330   0.89544  -0.07302
C          C       0.12104   0.56452   0.91166  -0.15799
C          C       0.09412   0.58303   0.95923   0.50940
C          C       0.09649   0.67457   0.05084  -0.08618
C          C       0.08696   0.73471   0.05624   0.16442
C          C       0.03778   0.74353   0.01530  -0.23098
C          C       0.05804   0.81495   0.05107  -0.17425
C          C       0.11828   0.84554   0.11176   0.03906
C          C       0.34948   0.20973   0.54721  -0.02540
C          C       0.35461   0.23818   0.45938   0.22956
C          C       0.32757   0.16900   0.41178  -0.22551
C          C       0.32279   0.15113   0.34725  -0.02837
C          C       0.34730   0.20232   0.33094  -0.10591
C          C       0.37619   0.27138   0.37930  -0.07289
C          C       0.37920   0.29072   0.44352  -0.15808
C          C       0.40619   0.36530   0.48896   0.51010
C          C       0.40477   0.45503   0.57852  -0.08356
C          C       0.41370   0.46978   0.64792   0.16278
C          C       0.46201   0.47708   0.70581  -0.23369
C          C       0.44123   0.49232   0.75653  -0.17505
C          C       0.38164   0.49371   0.72674   0.03642
C          C       0.33765   0.29004   0.63955  -0.02476
C          C       0.22134   0.26177   0.61630   0.22868
C          C       0.24305   0.33095   0.65859  -0.22424
C          C       0.19640   0.34874   0.67182  -0.02908
C          C       0.12884   0.29753   0.64513  -0.10600
C          C       0.10799   0.22847   0.60477  -0.07327
C          C       0.15288   0.20920   0.58833  -0.15731
C          C       0.12366   0.13461   0.54066   0.50892
C          C       0.12322   0.04498   0.44905  -0.08574
C          C       0.17793   0.03006   0.44359   0.16375
C          C       0.22785   0.02198   0.48453  -0.23120
C          C       0.26350   0.00651   0.44884  -0.17455
C          C       0.23323   0.00593   0.38817   0.03870
C          C       0.74989   0.12486   0.37515   0.05379
C          C       0.24999   0.37509   0.12507   0.05569
C          C       0.37495   0.24980   0.62476   0.05385
C          C       0.12520   0.75006   0.87508   0.05483
C          C       0.87473   0.62466   0.24969   0.05302
C          C       0.62508   0.87505   0.74994   0.05515
N          N       0.84963   0.34899   0.46641  -0.32672
N          N       0.02718   0.38762   0.37218   0.72507
N          N       0.65050   0.11646   0.49936  -0.32697
N          N       0.47332   0.84538   0.36089   0.72354
N          N       0.38316   0.38335   0.03382  -0.32975
N          N       0.51723   0.65761   0.12887   0.72146
N          N       0.11699   0.15109   0.00060  -0.32705
N          N       0.98456   0.11227   0.13969   0.72717
N          N       0.49926   0.15044   0.61632  -0.32767
N          N       0.36083   0.97326   0.34530   0.72446
N          N       0.46620   0.34973   0.84937  -0.32892
N          N       0.37387   0.52934   0.88674   0.72679
N          N       0.00060   0.61698   0.65106  -0.32751
N          N       0.13977   0.48462   0.61242   0.72535
N          N       0.03435   0.88298   0.88391  -0.32733
N          N       0.12785   0.01545   0.15462   0.72313
N          N       0.65075   0.50132   0.11611  -0.33131
N          N       0.61397   0.64415   0.98867   0.73153
N          N       0.88368   0.53404   0.38269  -0.32767
N          N       0.15444   0.62796   0.51539   0.72426
N          N       0.61607  -0.00090   0.65031  -0.32804
N          N       0.34522   0.86075   0.47310   0.72376
N          N       0.84907   0.96624   0.84956  -0.32618
N          N       0.88757   0.87211   0.02705   0.72489
N          N       0.15052   0.49942   0.11655  -0.32661
N          N       0.97318   0.36079   0.84525   0.72416
N          N       0.34964   0.46641   0.34898  -0.32623
N          N       0.52732   0.37211   0.38763   0.72679
N          N       0.61653   0.00003   0.15044  -0.33247
N          N       0.48306   0.14048   0.11138   0.72220
N          N       0.88287   0.03413   0.38373  -0.32756
N          N       0.01548   0.12780   0.65458   0.72330
N          N       0.50062   0.65100   0.61696  -0.32804
N          N       0.63960   0.61238   0.48459   0.72468
N          N       0.53402   0.88384   0.88336  -0.32951
N          N       0.62596   0.15550   0.01276   0.72637
N          N      -0.00071   0.61639   0.15055  -0.32733
N          N       0.86049   0.34503   0.97288   0.72442
N          N       0.96596   0.84877   0.34942  -0.32649
N          N       0.87205   0.88754   0.52711   0.72452
N          N       0.34931   0.85081   0.96578  -0.33088
N          N       0.38532   0.02992   0.87416   0.72980
N          N       0.11652   0.65055  -0.00079  -0.32707
N          N       0.84552   0.47349   0.86095   0.72319
N          N       0.38416   0.38313   0.53426  -0.32812
N          N       0.65454   0.51538   0.62784   0.72322
N          N       0.15086   0.11684   0.50046  -0.32757
N          N       0.11227   0.98452   0.63959   0.72630
O          O       0.96310   0.42767   0.51736  -0.57410
O          O       0.70291   0.31845   0.33923  -0.13177
O          O       0.83584   0.23534   0.47689  -0.21563
O          O       0.99285   0.37473   0.40294  -0.49095
O          O       0.07082   0.45092   0.39717  -0.47419
O          O       0.01725   0.34006   0.32024  -0.38253
O          O       0.53718   0.05461   0.46526  -0.57446
O          O       0.79726   0.13683   0.61605  -0.13212
O          O       0.66410   0.14067   0.39972  -0.21551
O          O       0.50759   0.91049   0.38226  -0.48730
O          O       0.43004   0.82692   0.38092  -0.47428
O          O       0.48290   0.80320   0.32300  -0.38251
O          O       0.41101   0.44863   0.98538  -0.57862
O          O       0.47867   0.36338   0.16049  -0.13109
O          O       0.25900   0.35936   0.02370  -0.21602
O          O       0.47078   0.59309   0.09578  -0.49048
O          O       0.55693   0.67561   0.10516  -0.46671
O          O       0.52263   0.69950   0.18163  -0.37851
O          O       0.08929   0.07210   0.03489  -0.57442
O          O       0.02032   0.18080   0.88387  -0.13250
O          O       0.24121   0.26466   0.10047  -0.21570
O          O       0.02840   0.12494   0.11845  -0.49138
O          O       0.94615   0.04903   0.12006  -0.47465
O          O       0.98018   0.16000   0.17707  -0.38318
O          O       0.46506   0.03707   0.55444  -0.57468
O          O       0.61619   0.29708   0.63668  -0.13222
O          O       0.39947   0.16395   0.64051  -0.21591
O          O       0.38201   0.00743   0.41035  -0.48918
O          O       0.38109   0.93014   0.32693  -0.47485
O          O       0.32291   0.98282   0.30311  -0.38336
O          O       0.51486   0.46352   0.92569  -0.57479
O          O       0.33972   0.20327   0.81875  -0.12916
O          O       0.47686   0.33488   0.73541  -0.21791
O          O       0.40024   0.49034   0.87446  -0.49213
O          O       0.40304   0.57720   0.94941  -0.46545
O          O       0.32215   0.52042   0.83976  -0.38085
O          O       0.03472   0.58923   0.57195  -0.57443
O          O       0.88389   0.52052   0.68081  -0.13219
O          O       0.10042   0.74116   0.76458  -0.21543
O          O       0.11872   0.52863   0.62512  -0.48993
O          O       0.12000   0.44608   0.54919  -0.47329
O          O       0.17715   0.48017   0.66009  -0.38157
O          O       0.98272   0.91076   0.94544  -0.57375
O          O       0.16001   0.97883   0.86296  -0.13160
O          O       0.02356   0.75886   0.85931  -0.21542
O          O       0.09704   0.97182   0.08947  -0.49055
O          O       0.10295   0.05387   0.17313  -0.47413
O          O       0.17965   0.01968   0.19671  -0.38216
O          O       0.57216   0.53640   0.08934  -0.57987
O          O       0.68074   0.38486   0.02056  -0.13174
O          O       0.76423   0.60018   0.24080  -0.21636
O          O       0.62638   0.61616   0.02599  -0.50772
O          O       0.55151   0.63126   0.95743  -0.48858
O          O       0.66038   0.68168   0.98292  -0.39324
O          O       0.94533   0.48247   0.41056  -0.57390
O          O       0.86329   0.66033   0.47891  -0.13210
O          O       0.85917   0.52316   0.25861  -0.21529
O          O       0.08928   0.59726   0.47175  -0.48964
O          O       0.17288   0.60305   0.55381  -0.47453
O          O       0.19673   0.67968   0.51970  -0.38272
O          O       0.55457   0.96522   0.53706  -0.57500
O          O       0.63672   0.11637   0.79676  -0.13044
O          O       0.64053   0.89947   0.66397  -0.21566
O          O       0.41030   0.88184   0.50706  -0.48910
O          O       0.32665   0.88086   0.42992  -0.47488
O          O       0.30317   0.82299   0.48289  -0.38266
O          O       0.92800   0.01732   0.96289  -0.57378
O          O       0.81863   0.83947   0.70290  -0.13183
O          O       0.73552   0.97686   0.83573  -0.21610
O          O       0.87491   0.90294   0.99272  -0.49228
O          O       0.95082   0.89711   0.07084  -0.47410
O          O       0.83989   0.82017   0.01700  -0.38235
O          O       0.03714   0.46517   0.05459  -0.57458
O          O       0.29717   0.61608   0.13638  -0.13273
O          O       0.16411   0.39961   0.14072  -0.21544
O          O       0.00749   0.38219   0.91036  -0.48945
O          O       0.92975   0.38069   0.82675  -0.47451
O          O       0.98289   0.32301   0.80313  -0.38246
O          O       0.46313   0.51726   0.42759  -0.57368
O          O       0.20280   0.33969   0.31820  -0.13165
O          O       0.33578   0.47692   0.23548  -0.21590
O          O       0.49313   0.40306   0.37492  -0.49066
O          O       0.57105   0.39708   0.45087  -0.47517
O          O       0.51717   0.32010   0.33995  -0.38298
O          O       0.58886   0.03769   0.07429  -0.57582
O          O       0.52096   0.88436   0.18130  -0.13258
O          O       0.74081   0.10015   0.26467  -0.21645
O          O       0.52948   0.12241   0.12462  -0.48999
O          O       0.44326   0.11878   0.04795  -0.46663
O          O       0.47771   0.17691   0.15880  -0.37920
O          O       0.91071   0.98260   0.44539  -0.57462
O          O       0.97965   0.16056   0.36369  -0.13186
O          O       0.75875   0.02332   0.35935  -0.21571
O          O       0.97180   0.09695   0.58944  -0.49021
O          O       0.05393   0.10291   0.67308  -0.47387
O          O       0.01972   0.17961   0.69665  -0.38254
O          O       0.53572   0.57261   0.58952  -0.57361
O          O       0.38388   0.68073   0.52032  -0.13232
O          O       0.60056   0.76468   0.74123  -0.21566
O          O       0.61869   0.62520   0.52867  -0.48987
O          O       0.61956   0.54908   0.44588  -0.47389
O          O       0.67716   0.66002   0.48023  -0.38260
O          O       0.48504   0.94859   0.91085  -0.57527
O          O       0.66042   0.86398   0.97970  -0.12925
O          O       0.52361   0.85905   0.75899  -0.21634
O          O       0.59953   0.09010   0.97403  -0.49224
O          O       0.59676   0.17419   0.04615  -0.46514
O          O       0.67777   0.19829   0.01763  -0.38031
O          O       0.96544   0.55471   0.03730  -0.57468
O          O       0.11616   0.63678   0.29717  -0.13192
O          O       0.89951   0.64055   0.16405  -0.21580
O          O       0.88181   0.41016   0.00696  -0.48919
O          O       0.88018   0.32634   0.92935  -0.47352
O          O       0.82295   0.30311   0.98295  -0.38173
O          O       0.01691   0.92750   0.46282  -0.57319
O          O       0.83989   0.81827   0.20258  -0.13181
O          O       0.97652   0.73516   0.33558  -0.21611
O          O       0.90303   0.87482   0.49300  -0.49185
O          O       0.89694   0.95081   0.57073  -0.47371
O          O       0.82006   0.83986   0.51702  -0.38256
O          O       0.42755   0.96457   0.01714  -0.57925
O          O       0.31879   0.70417   0.83996  -0.13126
O          O       0.23575   0.83609   0.97677  -0.21538
O          O       0.37272   0.98947   0.89896  -0.50643
O          O       0.44793   0.07924   0.90531  -0.48807
O          O       0.33893   0.02136   0.82216  -0.39334
O          O       0.05472   0.53725   0.96525  -0.57362
O          O       0.13711   0.79737   0.11589  -0.13191
O          O       0.14076   0.66410   0.89954  -0.21522
O          O       0.91063   0.50787   0.88236  -0.48846
O          O       0.82718   0.43032   0.88115  -0.47443
O          O       0.80324   0.48285   0.82288  -0.38262
O          O       0.44548   0.41073   0.48245  -0.57629
O          O       0.36362   0.47974   0.66008  -0.13111
O          O       0.35953   0.25889   0.52337  -0.21659
O          O       0.58936   0.47182   0.59712  -0.48945
O          O       0.67315   0.55366   0.60288  -0.47483
O          O       0.69669   0.51972   0.67968  -0.38247
O          O       0.07194   0.08916   0.53479  -0.57468
O          O       0.18082   0.02047   0.38394  -0.13227
O          O       0.26453   0.24105   0.60031  -0.21601
O          O       0.12489   0.02817   0.61809  -0.49195
O          O       0.04905   0.94620   0.62009  -0.47471
O          O       0.16000   0.98021   0.67707  -0.38156

