data_crystal

_audit_creation_method 'AiiDA-DDEC plugin'

_cell_length_a        33.10563
_cell_length_b        33.10563
_cell_length_c        33.10563

_cell_angle_alpha     90.00771
_cell_angle_beta     90.00771
_cell_angle_gamma     90.00771

_symmetry_space_group_name_Hall 'P 1'
_symmetry_space_group_name_H-M  'P 1'

loop_
_symmetry_equiv_pos_as_xyz
 'x,y,z'

loop_
_atom_site_label
_atom_site_type_symbol
_atom_site_fract_x
_atom_site_fract_y
_atom_site_fract_z
_atom_site_charge
Zn         Zn      0.24993   0.75035   0.03982   0.95690
Zn         Zn      0.24985   0.75026   0.45982   0.96364
Zn         Zn      0.03982   0.24993   0.75035   0.95686
Zn         Zn      0.45982   0.24985   0.75026   0.96366
Zn         Zn      0.75035   0.03982   0.24993   0.95688
Zn         Zn      0.75026   0.45982   0.24985   0.96361
Zn         Zn      0.24950   0.75038   0.54039   0.96014
Zn         Zn      0.24986   0.75018   0.96019   0.95653
Zn         Zn      0.75018   0.96019   0.24986   0.95653
Zn         Zn      0.75037   0.54039   0.24950   0.96013
Zn         Zn      0.96019   0.24986   0.75018   0.95661
Zn         Zn      0.54039   0.24950   0.75037   0.96014
Zn         Zn      0.75050   0.24963   0.45961   0.96013
Zn         Zn      0.75015   0.24983   0.03981   0.95672
Zn         Zn      0.24983   0.03981   0.75015   0.95674
Zn         Zn      0.24963   0.45961   0.75050   0.96008
Zn         Zn      0.03981   0.75015   0.24983   0.95677
Zn         Zn      0.45961   0.75050   0.24963   0.96013
Zn         Zn      0.75007   0.24966   0.96018   0.95673
Zn         Zn      0.75016   0.24974   0.54018   0.96362
Zn         Zn      0.96018   0.75007   0.24966   0.95665
Zn         Zn      0.54019   0.75016   0.24974   0.96364
Zn         Zn      0.24966   0.96019   0.75007   0.95667
Zn         Zn      0.24975   0.54019   0.75016   0.96365
H          H       0.18084   0.85256   0.05098   0.12841
H          H       0.14647   0.90664   0.09104   0.11688
H          H       0.10044   0.96544   0.09356   0.11841
H          H       0.09233   0.96582   0.96357   0.11037
H          H       0.13097   0.91577   0.92380   0.10392
H          H       0.17456   0.85428   0.92150   0.12055
H          H       0.08375   0.03326   0.97774   0.11044
H          H       0.31874   0.64694   0.05078   0.12786
H          H       0.35388   0.59340   0.09069   0.11678
H          H       0.40005   0.53476   0.09313   0.11802
H          H       0.40798   0.53431   0.96317   0.10962
H          H       0.36936   0.58475   0.92345   0.10258
H          H       0.32518   0.64567   0.92128   0.12047
H          H       0.41703   0.46709   0.97722   0.10959
H          H       0.31877   0.85264   0.44949   0.12733
H          H       0.35414   0.90637   0.40937   0.11391
H          H       0.40030   0.96489   0.40703   0.11572
H          H       0.40737   0.96577   0.53707   0.10988
H          H       0.36873   0.91577   0.57670   0.10328
H          H       0.32466   0.85463   0.57897   0.12103
H          H       0.41685   0.03310   0.52300   0.10951
H          H       0.17985   0.64849   0.44964   0.12510
H          H       0.14558   0.59431   0.40950   0.11492
H          H       0.10019   0.53519   0.40698   0.11828
H          H       0.09252   0.53422   0.53693   0.10952
H          H       0.13059   0.58476   0.57674   0.10543
H          H       0.17379   0.64643   0.57917   0.12178
H          H       0.08347   0.46695   0.52263   0.10881
H          H       0.05099   0.18084   0.85256   0.12853
H          H       0.09104   0.14647   0.90664   0.11699
H          H       0.09356   0.10044   0.96544   0.11853
H          H       0.96357   0.09233   0.96581   0.11034
H          H       0.92380   0.13097   0.91576   0.10368
H          H       0.92150   0.17456   0.85428   0.12047
H          H       0.97774   0.08375   0.03326   0.11039
H          H       0.05078   0.31874   0.64694   0.12676
H          H       0.09069   0.35388   0.59340   0.11682
H          H       0.09314   0.40005   0.53476   0.11813
H          H       0.96317   0.40797   0.53431   0.10967
H          H       0.92345   0.36936   0.58475   0.10259
H          H       0.92128   0.32518   0.64567   0.12043
H          H       0.97722   0.41703   0.46709   0.10950
H          H       0.44950   0.31877   0.85264   0.12728
H          H       0.40937   0.35414   0.90637   0.11416
H          H       0.40703   0.40030   0.96489   0.11563
H          H       0.53707   0.40737   0.96577   0.10995
H          H       0.57670   0.36873   0.91577   0.10333
H          H       0.57897   0.32466   0.85463   0.12111
H          H       0.52300   0.41685   0.03309   0.10952
H          H       0.44964   0.17985   0.64849   0.12503
H          H       0.40950   0.14558   0.59431   0.11481
H          H       0.40698   0.10019   0.53519   0.11830
H          H       0.53693   0.09252   0.53422   0.10959
H          H       0.57674   0.13059   0.58476   0.10548
H          H       0.57917   0.17379   0.64643   0.12176
H          H       0.52263   0.08347   0.46695   0.10880
H          H       0.85256   0.05098   0.18084   0.12842
H          H       0.90664   0.09104   0.14647   0.11685
H          H       0.96544   0.09356   0.10044   0.11846
H          H       0.96581   0.96357   0.09233   0.11038
H          H       0.91576   0.92380   0.13096   0.10369
H          H       0.85428   0.92150   0.17456   0.12050
H          H       0.03326   0.97774   0.08375   0.11034
H          H       0.64694   0.05078   0.31874   0.12678
H          H       0.59340   0.09069   0.35388   0.11685
H          H       0.53476   0.09314   0.40005   0.11803
H          H       0.53431   0.96317   0.40797   0.10955
H          H       0.58475   0.92345   0.36936   0.10247
H          H       0.64567   0.92128   0.32518   0.12049
H          H       0.46709   0.97722   0.41703   0.10957
H          H       0.85264   0.44950   0.31876   0.12734
H          H       0.90637   0.40937   0.35413   0.11418
H          H       0.96489   0.40703   0.40030   0.11565
H          H       0.96577   0.53707   0.40737   0.10989
H          H       0.91577   0.57670   0.36873   0.10333
H          H       0.85463   0.57897   0.32466   0.12110
H          H       0.03310   0.52300   0.41685   0.10962
H          H       0.64849   0.44964   0.17985   0.12504
H          H       0.59431   0.40950   0.14558   0.11673
H          H       0.53519   0.40698   0.10019   0.11828
H          H       0.53422   0.53693   0.09252   0.10961
H          H       0.58476   0.57674   0.13059   0.10542
H          H       0.64643   0.57917   0.17379   0.12173
H          H       0.46695   0.52263   0.08347   0.10877
H          H       0.14773   0.81926   0.55026   0.12817
H          H       0.09372   0.85408   0.59055   0.11504
H          H       0.03502   0.90006   0.59291   0.11815
H          H       0.03418   0.90744   0.46299   0.10965
H          H       0.08389   0.86869   0.42328   0.10645
H          H       0.14529   0.82491   0.42073   0.12096
H          H       0.96696   0.91664   0.47711   0.10880
H          H       0.35233   0.68074   0.55186   0.12449
H          H       0.40575   0.64522   0.59169   0.11463
H          H       0.46436   0.59906   0.59395   0.11849
H          H       0.46509   0.59204   0.46398   0.10970
H          H       0.41485   0.63091   0.42433   0.10336
H          H       0.35401   0.67524   0.42232   0.12082
H          H       0.53216   0.58371   0.47767   0.10962
H          H       0.14681   0.68140   0.94899   0.12681
H          H       0.09308   0.64645   0.90903   0.11667
H          H       0.03449   0.60036   0.90655   0.11771
H          H       0.03403   0.59225   0.03647   0.10985
H          H       0.08453   0.63070   0.07622   0.10554
H          H       0.14559   0.67471   0.07857   0.12115
H          H       0.96687   0.58319   0.02263   0.10865
H          H       0.35267   0.81936   0.94930   0.12510
H          H       0.40615   0.85409   0.90924   0.11649
H          H       0.46514   0.89985   0.90660   0.11671
H          H       0.46603   0.90801   0.03648   0.10961
H          H       0.41559   0.86954   0.07644   0.10289
H          H       0.35452   0.82552   0.07889   0.12110
H          H       0.53337   0.91606   0.02200   0.11054
H          H       0.81936   0.94930   0.35267   0.12518
H          H       0.85409   0.90924   0.40615   0.11664
H          H       0.89985   0.90660   0.46514   0.11911
H          H       0.90801   0.03648   0.46603   0.10966
H          H       0.86954   0.07644   0.41559   0.10289
H          H       0.82552   0.07889   0.35452   0.12119
H          H       0.91606   0.02200   0.53337   0.11052
H          H       0.68140   0.94899   0.14681   0.12671
H          H       0.64645   0.90904   0.09308   0.11660
H          H       0.60036   0.90655   0.03449   0.11540
H          H       0.59225   0.03647   0.03403   0.10986
H          H       0.63070   0.07622   0.08453   0.10560
H          H       0.67471   0.07857   0.14559   0.12110
H          H       0.58319   0.02263   0.96687   0.10880
H          H       0.68074   0.55186   0.35233   0.12453
H          H       0.64522   0.59169   0.40575   0.11480
H          H       0.59906   0.59396   0.46436   0.11846
H          H       0.59204   0.46398   0.46509   0.10964
H          H       0.63091   0.42433   0.41485   0.10333
H          H       0.67524   0.42232   0.35401   0.12082
H          H       0.58371   0.47767   0.53215   0.10957
H          H       0.81926   0.55026   0.14773   0.12813
H          H       0.85408   0.59055   0.09371   0.11501
H          H       0.90006   0.59291   0.03502   0.11819
H          H       0.90744   0.46299   0.03418   0.10968
H          H       0.86869   0.42328   0.08389   0.10645
H          H       0.82491   0.42073   0.14529   0.12090
H          H       0.91665   0.47712   0.96696   0.10867
H          H       0.94899   0.14681   0.68140   0.12669
H          H       0.90903   0.09308   0.64645   0.11658
H          H       0.90655   0.03449   0.60036   0.11532
H          H       0.03647   0.03403   0.59225   0.10987
H          H       0.07622   0.08453   0.63070   0.10557
H          H       0.07857   0.14559   0.67471   0.12118
H          H       0.02263   0.96687   0.58319   0.10870
H          H       0.94930   0.35267   0.81936   0.12504
H          H       0.90924   0.40615   0.85408   0.11655
H          H       0.90660   0.46514   0.89985   0.11665
H          H       0.03648   0.46603   0.90801   0.10979
H          H       0.07644   0.41559   0.86954   0.10298
H          H       0.07889   0.35452   0.82552   0.12118
H          H       0.02200   0.53337   0.91606   0.11059
H          H       0.55026   0.14773   0.81926   0.12821
H          H       0.59055   0.09372   0.85408   0.11512
H          H       0.59291   0.03502   0.90006   0.11817
H          H       0.46299   0.03418   0.90744   0.10955
H          H       0.42328   0.08389   0.86869   0.10636
H          H       0.42073   0.14529   0.82491   0.12093
H          H       0.47712   0.96696   0.91664   0.10870
H          H       0.55186   0.35233   0.68074   0.12449
H          H       0.59169   0.40575   0.64522   0.11464
H          H       0.59396   0.46436   0.59906   0.11854
H          H       0.46398   0.46509   0.59204   0.10965
H          H       0.42433   0.41485   0.63091   0.10331
H          H       0.42232   0.35401   0.67523   0.12071
H          H       0.47767   0.53216   0.58371   0.10952
H          H       0.85228   0.18074   0.44974   0.12800
H          H       0.90629   0.14593   0.40946   0.11485
H          H       0.96498   0.09994   0.40709   0.11808
H          H       0.96582   0.09256   0.53701   0.10991
H          H       0.91611   0.13132   0.57672   0.10666
H          H       0.85471   0.17509   0.57927   0.12115
H          H       0.03304   0.08336   0.52289   0.10930
H          H       0.64767   0.31926   0.44814   0.12432
H          H       0.59425   0.35479   0.40831   0.11453
H          H       0.53564   0.40095   0.40605   0.11822
H          H       0.53492   0.40797   0.53602   0.10979
H          H       0.58516   0.36909   0.57567   0.10358
H          H       0.64600   0.32477   0.57769   0.12105
H          H       0.46785   0.41629   0.52233   0.10944
H          H       0.85319   0.31860   0.05101   0.12665
H          H       0.90692   0.35355   0.09097   0.11651
H          H       0.96551   0.39964   0.09345   0.11565
H          H       0.96597   0.40775   0.96353   0.11002
H          H       0.91548   0.36930   0.92378   0.10551
H          H       0.85441   0.32529   0.92143   0.12074
H          H       0.03314   0.41682   0.97737   0.10839
H          H       0.64733   0.18065   0.05070   0.12554
H          H       0.59386   0.14592   0.09076   0.11710
H          H       0.53487   0.10015   0.09340   0.11680
H          H       0.53398   0.09199   0.96353   0.10923
H          H       0.58441   0.13046   0.92356   0.10251
H          H       0.64548   0.17448   0.92111   0.12106
H          H       0.46663   0.08394   0.97800   0.11062
H          H       0.18065   0.05070   0.64733   0.12565
H          H       0.14592   0.09076   0.59386   0.11726
H          H       0.10015   0.09340   0.53487   0.11681
H          H       0.09199   0.96353   0.53397   0.10922
H          H       0.13046   0.92356   0.58441   0.10246
H          H       0.17448   0.92111   0.64548   0.12098
H          H       0.08394   0.97801   0.46663   0.11060
H          H       0.31860   0.05101   0.85319   0.12804
H          H       0.35355   0.09097   0.90692   0.11663
H          H       0.39964   0.09346   0.96551   0.11590
H          H       0.40775   0.96353   0.96597   0.10990
H          H       0.36930   0.92378   0.91548   0.10544
H          H       0.32529   0.92144   0.85441   0.12063
H          H       0.41681   0.97737   0.03313   0.10837
H          H       0.31926   0.44814   0.64767   0.12419
H          H       0.35479   0.40831   0.59425   0.11442
H          H       0.40095   0.40605   0.53564   0.11816
H          H       0.40797   0.53602   0.53492   0.10990
H          H       0.36909   0.57567   0.58516   0.10365
H          H       0.32477   0.57769   0.64600   0.12112
H          H       0.41629   0.52233   0.46785   0.10949
H          H       0.18074   0.44974   0.85227   0.12784
H          H       0.14593   0.40946   0.90629   0.11473
H          H       0.09995   0.40709   0.96498   0.11792
H          H       0.09257   0.53701   0.96582   0.11002
H          H       0.13132   0.57672   0.91611   0.10674
H          H       0.17509   0.57927   0.85471   0.12125
H          H       0.08336   0.52289   0.03304   0.10926
H          H       0.05101   0.85319   0.31860   0.12674
H          H       0.09097   0.90692   0.35355   0.11662
H          H       0.09346   0.96551   0.39964   0.11587
H          H       0.96353   0.96597   0.40775   0.10991
H          H       0.92378   0.91548   0.36930   0.10544
H          H       0.92144   0.85441   0.32529   0.12073
H          H       0.97737   0.03313   0.41681   0.10842
H          H       0.05070   0.64733   0.18065   0.12559
H          H       0.09076   0.59386   0.14592   0.11723
H          H       0.09340   0.53487   0.10015   0.11683
H          H       0.96353   0.53397   0.09199   0.10931
H          H       0.92356   0.58441   0.13046   0.10250
H          H       0.92111   0.64548   0.17448   0.12101
H          H       0.97800   0.46663   0.08394   0.11055
H          H       0.44974   0.85228   0.18074   0.12786
H          H       0.40946   0.90629   0.14592   0.11477
H          H       0.40709   0.96498   0.09994   0.11803
H          H       0.53701   0.96582   0.09256   0.11001
H          H       0.57672   0.91611   0.13132   0.10676
H          H       0.57927   0.85471   0.17509   0.12118
H          H       0.52289   0.03304   0.08336   0.10922
H          H       0.44814   0.64767   0.31926   0.12431
H          H       0.40831   0.59425   0.35479   0.11445
H          H       0.40605   0.53564   0.40095   0.11814
H          H       0.53602   0.53492   0.40797   0.10985
H          H       0.57567   0.58516   0.36909   0.10361
H          H       0.57769   0.64600   0.32477   0.12113
H          H       0.52233   0.46785   0.41629   0.10963
H          H       0.81916   0.14745   0.94902   0.12828
H          H       0.85353   0.09337   0.90897   0.11664
H          H       0.89957   0.03457   0.90645   0.11815
H          H       0.90767   0.03419   0.03643   0.11047
H          H       0.86904   0.08424   0.07621   0.10373
H          H       0.82544   0.14572   0.07850   0.12080
H          H       0.91625   0.96674   0.02226   0.11022
H          H       0.68126   0.35306   0.94923   0.12644
H          H       0.64612   0.40660   0.90931   0.11665
H          H       0.59995   0.46525   0.90687   0.11782
H          H       0.59203   0.46570   0.03683   0.10985
H          H       0.63064   0.41525   0.07655   0.10269
H          H       0.67482   0.35434   0.07872   0.12063
H          H       0.58297   0.53291   0.02278   0.11003
H          H       0.68124   0.14736   0.55051   0.12771
H          H       0.64587   0.09363   0.59063   0.11438
H          H       0.59970   0.03511   0.59297   0.11573
H          H       0.59263   0.03423   0.46294   0.10942
H          H       0.63128   0.08423   0.42330   0.10289
H          H       0.67534   0.14537   0.42104   0.12109
H          H       0.58315   0.96691   0.47700   0.10970
H          H       0.82016   0.35151   0.55037   0.12486
H          H       0.85442   0.40569   0.59050   0.11477
H          H       0.89981   0.46482   0.59303   0.11875
H          H       0.90748   0.46578   0.46308   0.10968
H          H       0.86941   0.41524   0.42326   0.10548
H          H       0.82622   0.35357   0.42083   0.12147
H          H       0.91653   0.53305   0.47737   0.10849
H          H       0.94902   0.81916   0.14744   0.12823
H          H       0.90897   0.85353   0.09336   0.11659
H          H       0.90645   0.89957   0.03456   0.11816
H          H       0.03643   0.90767   0.03419   0.11060
H          H       0.07621   0.86904   0.08424   0.10385
H          H       0.07850   0.82544   0.14572   0.12089
H          H       0.02227   0.91625   0.96674   0.11028
H          H       0.94923   0.68126   0.35306   0.12644
H          H       0.90931   0.64612   0.40660   0.11659
H          H       0.90687   0.59995   0.46524   0.11772
H          H       0.03683   0.59203   0.46570   0.10988
H          H       0.07656   0.63064   0.41525   0.10277
H          H       0.07872   0.67482   0.35434   0.12080
H          H       0.02278   0.58297   0.53291   0.11008
H          H       0.55051   0.68124   0.14736   0.12769
H          H       0.59063   0.64587   0.09363   0.11428
H          H       0.59297   0.59970   0.03511   0.11579
H          H       0.46294   0.59263   0.03423   0.10945
H          H       0.42330   0.63128   0.08423   0.10289
H          H       0.42104   0.67534   0.14537   0.12090
H          H       0.47700   0.58315   0.96691   0.10965
H          H       0.55037   0.82016   0.35151   0.12497
H          H       0.59050   0.85442   0.40569   0.11489
H          H       0.59303   0.89981   0.46482   0.11878
H          H       0.46308   0.90748   0.46578   0.10952
H          H       0.42326   0.86941   0.41524   0.10541
H          H       0.42083   0.82622   0.35357   0.12141
H          H       0.47737   0.91653   0.53305   0.10839
H          H       0.14745   0.94902   0.81916   0.12819
H          H       0.09337   0.90897   0.85353   0.11656
H          H       0.03457   0.90645   0.89957   0.11808
H          H       0.03419   0.03643   0.90767   0.11058
H          H       0.08424   0.07621   0.86904   0.10386
H          H       0.14572   0.07850   0.82544   0.12092
H          H       0.96674   0.02226   0.91625   0.11041
H          H       0.35306   0.94923   0.68126   0.12629
H          H       0.40660   0.90931   0.64612   0.11652
H          H       0.46525   0.90687   0.59995   0.11780
H          H       0.46570   0.03683   0.59203   0.10991
H          H       0.41525   0.07656   0.63064   0.10278
H          H       0.35434   0.07872   0.67482   0.12075
H          H       0.53291   0.02278   0.58297   0.10998
H          H       0.14736   0.55051   0.68124   0.12774
H          H       0.09363   0.59063   0.64587   0.11441
H          H       0.03512   0.59298   0.59970   0.11575
H          H       0.03423   0.46294   0.59263   0.10934
H          H       0.08423   0.42330   0.63128   0.10282
H          H       0.14537   0.42104   0.67534   0.12093
H          H       0.96691   0.47700   0.58315   0.10953
H          H       0.35151   0.55037   0.82016   0.12495
H          H       0.40569   0.59050   0.85442   0.11490
H          H       0.46482   0.59303   0.89981   0.11884
H          H       0.46578   0.46308   0.90748   0.10952
H          H       0.41525   0.42326   0.86941   0.10544
H          H       0.35357   0.42083   0.82622   0.12138
H          H       0.53305   0.47737   0.91653   0.10841
C          C       0.20591   0.81314   0.98587   0.59544
C          C       0.18003   0.84993   0.98646  -0.04093
C          C       0.16978   0.86674   0.02349  -0.13645
C          C       0.14522   0.90157   0.02576   0.05820
C          C       0.13426   0.91940   0.06328  -0.13040
C          C       0.10864   0.95215   0.06464  -0.14452
C          C       0.09268   0.96936   0.02853   0.07215
C          C       0.10443   0.95334   0.99150  -0.18552
C          C       0.13050   0.91944   0.98908   0.08280
C          C       0.14187   0.90185   0.95150  -0.13808
C          C       0.16596   0.86792   0.95012  -0.09983
C          C       0.06245   0.00218   0.03080   0.07429
C          C       0.06122   0.03292   0.00165  -0.18255
C          C       0.29327   0.68650   0.98588   0.59550
C          C       0.31937   0.64979   0.98628  -0.04133
C          C       0.32991   0.63297   0.02323  -0.13572
C          C       0.35484   0.59839   0.02540   0.05790
C          C       0.36598   0.58064   0.06290  -0.12998
C          C       0.39171   0.54798   0.06423  -0.14363
C          C       0.40766   0.53083   0.02812   0.07075
C          C       0.39589   0.54685   0.99108  -0.18465
C          C       0.36970   0.58068   0.98870   0.08248
C          C       0.35820   0.59836   0.95120  -0.13832
C          C       0.33375   0.63206   0.94992  -0.09985
C          C       0.43795   0.49808   0.03047   0.07355
C          C       0.43939   0.46739   0.00130  -0.18131
C          C       0.29340   0.81329   0.51491   0.59435
C          C       0.31929   0.85014   0.51407  -0.04136
C          C       0.32979   0.86681   0.47701  -0.13652
C          C       0.35464   0.90148   0.47473   0.05911
C          C       0.36606   0.91914   0.43724  -0.12854
C          C       0.39186   0.95176   0.43595  -0.14217
C          C       0.40764   0.96907   0.47210   0.07104
C          C       0.39553   0.95320   0.50907  -0.18426
C          C       0.36929   0.91941   0.51141   0.08223
C          C       0.35769   0.90198   0.54899  -0.13714
C          C       0.33338   0.86820   0.55036  -0.10007
C          C       0.43791   0.00188   0.46986   0.07386
C          C       0.43921   0.03272   0.49893  -0.18115
C          C       0.20495   0.68793   0.51496   0.59603
C          C       0.17912   0.65109   0.51420  -0.04126
C          C       0.16894   0.63425   0.47715  -0.13483
C          C       0.14466   0.59920   0.47482   0.06034
C          C       0.13372   0.58136   0.43730  -0.12923
C          C       0.10837   0.54841   0.43592  -0.14403
C          C       0.09258   0.53098   0.47198   0.06967
C          C       0.10439   0.54696   0.50903  -0.18383
C          C       0.13017   0.58109   0.51146   0.08145
C          C       0.14143   0.59873   0.54905  -0.13889
C          C       0.16521   0.63288   0.55050  -0.10080
C          C       0.06231   0.49819   0.46960   0.07412
C          C       0.06100   0.46738   0.49866  -0.18003
C          C       0.98587   0.20591   0.81314   0.59552
C          C       0.98646   0.18003   0.84992  -0.04117
C          C       0.02349   0.16978   0.86674  -0.13649
C          C       0.02576   0.14522   0.90157   0.05815
C          C       0.06328   0.13426   0.91940  -0.13033
C          C       0.06464   0.10864   0.95215  -0.14447
C          C       0.02853   0.09268   0.96936   0.07204
C          C       0.99150   0.10443   0.95334  -0.18573
C          C       0.98909   0.13050   0.91944   0.08282
C          C       0.95150   0.14187   0.90185  -0.13790
C          C       0.95012   0.16596   0.86791  -0.09966
C          C       0.03080   0.06245   0.00218   0.07431
C          C       0.00165   0.06122   0.03292  -0.18248
C          C       0.98588   0.29327   0.68650   0.59533
C          C       0.98628   0.31937   0.64979  -0.04122
C          C       0.02323   0.32991   0.63297  -0.13461
C          C       0.02540   0.35484   0.59839   0.05788
C          C       0.06290   0.36598   0.58064  -0.12983
C          C       0.06423   0.39171   0.54798  -0.14369
C          C       0.02812   0.40766   0.53083   0.07079
C          C       0.99108   0.39589   0.54685  -0.18475
C          C       0.98870   0.36970   0.58068   0.08235
C          C       0.95120   0.35820   0.59836  -0.13826
C          C       0.94992   0.33375   0.63206  -0.10003
C          C       0.03047   0.43795   0.49808   0.07359
C          C       0.00130   0.43939   0.46739  -0.18132
C          C       0.51491   0.29340   0.81329   0.59431
C          C       0.51407   0.31929   0.85014  -0.04136
C          C       0.47701   0.32979   0.86681  -0.13658
C          C       0.47473   0.35464   0.90148   0.05926
C          C       0.43724   0.36606   0.91914  -0.12920
C          C       0.43595   0.39186   0.95176  -0.14217
C          C       0.47210   0.40764   0.96907   0.07103
C          C       0.50907   0.39553   0.95320  -0.18415
C          C       0.51141   0.36929   0.91941   0.08233
C          C       0.54899   0.35769   0.90198  -0.13723
C          C       0.55036   0.33338   0.86820  -0.09994
C          C       0.46986   0.43791   0.00188   0.07389
C          C       0.49893   0.43921   0.03272  -0.18111
C          C       0.51496   0.20495   0.68793   0.59623
C          C       0.51420   0.17912   0.65109  -0.04133
C          C       0.47715   0.16894   0.63425  -0.13481
C          C       0.47482   0.14466   0.59920   0.06020
C          C       0.43730   0.13372   0.58136  -0.12908
C          C       0.43592   0.10837   0.54841  -0.14415
C          C       0.47198   0.09258   0.53098   0.06969
C          C       0.50903   0.10439   0.54696  -0.18379
C          C       0.51146   0.13017   0.58109   0.08153
C          C       0.54905   0.14143   0.59873  -0.13885
C          C       0.55050   0.16521   0.63288  -0.10077
C          C       0.46960   0.06231   0.49819   0.07406
C          C       0.49866   0.06100   0.46738  -0.17998
C          C       0.81314   0.98587   0.20590   0.59532
C          C       0.84993   0.98646   0.18003  -0.04081
C          C       0.86674   0.02349   0.16978  -0.13650
C          C       0.90157   0.02576   0.14522   0.05817
C          C       0.91940   0.06328   0.13426  -0.13037
C          C       0.95215   0.06464   0.10864  -0.14459
C          C       0.96936   0.02853   0.09267   0.07214
C          C       0.95334   0.99150   0.10443  -0.18554
C          C       0.91944   0.98908   0.13049   0.08266
C          C       0.90185   0.95150   0.14187  -0.13762
C          C       0.86792   0.95012   0.16596  -0.09992
C          C       0.00218   0.03080   0.06245   0.07443
C          C       0.03292   0.00165   0.06122  -0.18249
C          C       0.68650   0.98588   0.29327   0.59523
C          C       0.64979   0.98628   0.31937  -0.04116
C          C       0.63297   0.02323   0.32991  -0.13468
C          C       0.59839   0.02540   0.35484   0.05801
C          C       0.58064   0.06290   0.36598  -0.12995
C          C       0.54798   0.06423   0.39170  -0.14361
C          C       0.53083   0.02812   0.40766   0.07077
C          C       0.54685   0.99108   0.39588  -0.18476
C          C       0.58068   0.98870   0.36970   0.08236
C          C       0.59836   0.95120   0.35820  -0.13813
C          C       0.63206   0.94992   0.33375  -0.10010
C          C       0.49808   0.03047   0.43795   0.07358
C          C       0.46739   0.00130   0.43939  -0.18133
C          C       0.81329   0.51491   0.29340   0.59418
C          C       0.85014   0.51407   0.31929  -0.04128
C          C       0.86681   0.47701   0.32978  -0.13643
C          C       0.90148   0.47473   0.35464   0.05897
C          C       0.91914   0.43724   0.36606  -0.12894
C          C       0.95176   0.43595   0.39185  -0.14211
C          C       0.96907   0.47210   0.40764   0.07094
C          C       0.95320   0.50907   0.39552  -0.18425
C          C       0.91941   0.51141   0.36928   0.08239
C          C       0.90198   0.54899   0.35769  -0.13743
C          C       0.86820   0.55036   0.33338  -0.09995
C          C       0.00188   0.46986   0.43791   0.07376
C          C       0.03272   0.49893   0.43921  -0.18119
C          C       0.68793   0.51496   0.20495   0.59610
C          C       0.65109   0.51420   0.17912  -0.04112
C          C       0.63425   0.47715   0.16894  -0.13496
C          C       0.59920   0.47482   0.14466   0.06010
C          C       0.58136   0.43730   0.13371  -0.13066
C          C       0.54841   0.43592   0.10837  -0.14414
C          C       0.53098   0.47198   0.09258   0.06965
C          C       0.54696   0.50903   0.10439  -0.18383
C          C       0.58109   0.51146   0.13017   0.08141
C          C       0.59873   0.54905   0.14143  -0.13874
C          C       0.63288   0.55050   0.16521  -0.10089
C          C       0.49819   0.46960   0.06231   0.07403
C          C       0.46738   0.49866   0.06100  -0.18005
C          C       0.18702   0.79421   0.48507   0.59311
C          C       0.15008   0.81989   0.48573  -0.04106
C          C       0.13340   0.83023   0.52281  -0.13637
C          C       0.09857   0.85478   0.52519   0.05887
C          C       0.08090   0.86601   0.56271  -0.12897
C          C       0.04820   0.89166   0.56402  -0.14298
C          C       0.03088   0.90749   0.52794   0.06948
C          C       0.04676   0.89552   0.49093  -0.18357
C          C       0.08057   0.86935   0.48853   0.08208
C          C       0.09793   0.85779   0.45091  -0.14108
C          C       0.13187   0.83371   0.44940  -0.09936
C          C       0.99805   0.93769   0.53032   0.07439
C          C       0.96727   0.93896   0.50123  -0.18022
C          C       0.31297   0.70652   0.48667   0.59776
C          C       0.34963   0.68041   0.48730  -0.04181
C          C       0.36634   0.66974   0.52426  -0.13290
C          C       0.40092   0.64479   0.52638   0.05841
C          C       0.41857   0.63332   0.56383  -0.12874
C          C       0.45123   0.60758   0.56506  -0.14350
C          C       0.46855   0.59194   0.52888   0.07041
C          C       0.45251   0.60395   0.49193  -0.18506
C          C       0.41870   0.63015   0.48964   0.08116
C          C       0.40120   0.64189   0.45213  -0.13633
C          C       0.36753   0.66636   0.45090  -0.10085
C          C       0.50161   0.56192   0.53086   0.07519
C          C       0.53218   0.56108   0.50150  -0.18188
C          C       0.18672   0.70641   0.01421   0.59352
C          C       0.14984   0.68052   0.01360  -0.03965
C          C       0.13290   0.67026   0.97659  -0.13609
C          C       0.09817   0.64548   0.97433   0.05977
C          C       0.08037   0.63436   0.93684  -0.13128
C          C       0.04773   0.60861   0.93548  -0.14403
C          C       0.03053   0.59264   0.97157   0.07137
C          C       0.04659   0.60439   0.00859  -0.18459
C          C       0.08044   0.63056   0.01098   0.08110
C          C       0.09814   0.64192   0.04851  -0.13991
C          C       0.13197   0.66619   0.04991  -0.10079
C          C       0.99776   0.56234   0.96929   0.07518
C          C       0.96715   0.56082   0.99857  -0.18093
C          C       0.31328   0.79408   0.01430   0.59547
C          C       0.35003   0.82003   0.01385  -0.04185
C          C       0.36677   0.83040   0.97684  -0.13479
C          C       0.40150   0.85507   0.97455   0.05923
C          C       0.41912   0.86610   0.93697  -0.13008
C          C       0.45190   0.89162   0.93553  -0.14345
C          C       0.46924   0.90746   0.97160   0.07121
C          C       0.45330   0.89583   0.00869  -0.18350
C          C       0.41939   0.86980   0.01120   0.08218
C          C       0.40182   0.85841   0.04877  -0.13742
C          C       0.36799   0.83415   0.05020  -0.09969
C          C       0.50206   0.93762   0.96924   0.07302
C          C       0.53294   0.93874   0.99822  -0.18242
C          C       0.79408   0.01430   0.31328   0.59524
C          C       0.82003   0.01385   0.35002  -0.04173
C          C       0.83040   0.97684   0.36677  -0.13478
C          C       0.85507   0.97455   0.40150   0.05916
C          C       0.86610   0.93697   0.41911  -0.13019
C          C       0.89162   0.93553   0.45190  -0.14571
C          C       0.90745   0.97160   0.46924   0.07119
C          C       0.89583   0.00869   0.45330  -0.18348
C          C       0.86980   0.01120   0.41939   0.08200
C          C       0.85841   0.04877   0.40182  -0.13724
C          C       0.83415   0.05020   0.36799  -0.09979
C          C       0.93762   0.96924   0.50206   0.07312
C          C       0.93874   0.99822   0.53294  -0.18246
C          C       0.70641   0.01421   0.18672   0.59377
C          C       0.68052   0.01360   0.14984  -0.03997
C          C       0.67026   0.97659   0.13290  -0.13611
C          C       0.64548   0.97433   0.09817   0.05987
C          C       0.63436   0.93684   0.08037  -0.13116
C          C       0.60861   0.93548   0.04773  -0.14204
C          C       0.59264   0.97157   0.03053   0.07150
C          C       0.60439   0.00859   0.04659  -0.18454
C          C       0.63056   0.01099   0.08044   0.08103
C          C       0.64192   0.04851   0.09814  -0.13987
C          C       0.66619   0.04991   0.13197  -0.10065
C          C       0.56234   0.96930   0.99776   0.07547
C          C       0.56083   0.99857   0.96715  -0.18102
C          C       0.70652   0.48667   0.31297   0.59768
C          C       0.68041   0.48730   0.34963  -0.04181
C          C       0.66974   0.52426   0.36634  -0.13285
C          C       0.64479   0.52638   0.40092   0.05859
C          C       0.63332   0.56383   0.41857  -0.12891
C          C       0.60758   0.56507   0.45123  -0.14343
C          C       0.59194   0.52888   0.46855   0.07033
C          C       0.60395   0.49193   0.45251  -0.18506
C          C       0.63015   0.48964   0.41870   0.08105
C          C       0.64189   0.45213   0.40120  -0.13644
C          C       0.66636   0.45090   0.36753  -0.10079
C          C       0.56192   0.53086   0.50160   0.07519
C          C       0.56108   0.50150   0.53218  -0.18186
C          C       0.79421   0.48508   0.18701   0.59302
C          C       0.81989   0.48573   0.15007  -0.04110
C          C       0.83023   0.52281   0.13340  -0.13632
C          C       0.85478   0.52519   0.09856   0.05886
C          C       0.86601   0.56271   0.08090  -0.12897
C          C       0.89166   0.56402   0.04820  -0.14293
C          C       0.90749   0.52794   0.03088   0.06939
C          C       0.89552   0.49093   0.04676  -0.18341
C          C       0.86935   0.48853   0.08057   0.08183
C          C       0.85778   0.45091   0.09793  -0.14088
C          C       0.83371   0.44940   0.13187  -0.09935
C          C       0.93769   0.53032   0.99805   0.07459
C          C       0.93896   0.50123   0.96727  -0.18015
C          C       0.01421   0.18672   0.70641   0.59389
C          C       0.01360   0.14984   0.68052  -0.04021
C          C       0.97659   0.13290   0.67026  -0.13605
C          C       0.97433   0.09817   0.64548   0.05989
C          C       0.93684   0.08037   0.63436  -0.13116
C          C       0.93548   0.04773   0.60861  -0.14206
C          C       0.97157   0.03053   0.59264   0.07131
C          C       0.00859   0.04659   0.60439  -0.18451
C          C       0.01099   0.08044   0.63056   0.08099
C          C       0.04851   0.09814   0.64192  -0.13989
C          C       0.04991   0.13197   0.66619  -0.10047
C          C       0.96930   0.99776   0.56233   0.07543
C          C       0.99857   0.96715   0.56082  -0.18109
C          C       0.01430   0.31329   0.79409   0.59525
C          C       0.01385   0.35003   0.82003  -0.04168
C          C       0.97684   0.36677   0.83040  -0.13471
C          C       0.97455   0.40150   0.85507   0.05908
C          C       0.93697   0.41912   0.86610  -0.12994
C          C       0.93553   0.45190   0.89162  -0.14378
C          C       0.97160   0.46924   0.90745   0.07135
C          C       0.00870   0.45330   0.89583  -0.18354
C          C       0.01120   0.41939   0.86980   0.08208
C          C       0.04877   0.40182   0.85841  -0.13729
C          C       0.05020   0.36799   0.83415  -0.09972
C          C       0.96924   0.50206   0.93762   0.07303
C          C       0.99822   0.53294   0.93874  -0.18232
C          C       0.48508   0.18702   0.79421   0.59299
C          C       0.48573   0.15008   0.81989  -0.04101
C          C       0.52281   0.13340   0.83023  -0.13625
C          C       0.52519   0.09857   0.85478   0.05883
C          C       0.56271   0.08090   0.86601  -0.12894
C          C       0.56402   0.04820   0.89166  -0.14296
C          C       0.52795   0.03088   0.90749   0.06939
C          C       0.49094   0.04676   0.89552  -0.18347
C          C       0.48853   0.08057   0.86935   0.08198
C          C       0.45091   0.09793   0.85778  -0.14104
C          C       0.44941   0.13187   0.83371  -0.09939
C          C       0.53032   0.99805   0.93769   0.07462
C          C       0.50123   0.96727   0.93896  -0.18005
C          C       0.48667   0.31297   0.70652   0.59777
C          C       0.48730   0.34963   0.68041  -0.04190
C          C       0.52426   0.36634   0.66974  -0.13278
C          C       0.52638   0.40092   0.64479   0.05846
C          C       0.56383   0.41857   0.63332  -0.12881
C          C       0.56507   0.45123   0.60758  -0.14341
C          C       0.52888   0.46855   0.59194   0.07042
C          C       0.49193   0.45251   0.60395  -0.18501
C          C       0.48964   0.41870   0.63015   0.08102
C          C       0.45213   0.40120   0.64189  -0.13631
C          C       0.45090   0.36753   0.66636  -0.10080
C          C       0.53086   0.50161   0.56192   0.07520
C          C       0.50150   0.53218   0.56108  -0.18200
C          C       0.81299   0.20580   0.51492   0.59310
C          C       0.84993   0.18012   0.51427  -0.04088
C          C       0.86660   0.16977   0.47719  -0.13659
C          C       0.90144   0.14522   0.47481   0.05880
C          C       0.91910   0.13400   0.43729  -0.12906
C          C       0.95180   0.10834   0.43598  -0.14299
C          C       0.96912   0.09251   0.47206   0.06970
C          C       0.95325   0.10448   0.50907  -0.18351
C          C       0.91944   0.13065   0.51147   0.08205
C          C       0.90208   0.14222   0.54909  -0.14089
C          C       0.86814   0.16630   0.55060  -0.09941
C          C       0.00195   0.06231   0.46968   0.07434
C          C       0.03273   0.06104   0.49877  -0.18000
C          C       0.68704   0.29348   0.51333   0.59786
C          C       0.65038   0.31960   0.51270  -0.04199
C          C       0.63366   0.33026   0.47574  -0.13292
C          C       0.59908   0.35522   0.47362   0.05857
C          C       0.58143   0.36669   0.43617  -0.12895
C          C       0.54877   0.39243   0.43494  -0.14374
C          C       0.53145   0.40806   0.47112   0.07031
C          C       0.54750   0.39605   0.50807  -0.18484
C          C       0.58131   0.36985   0.51037   0.08108
C          C       0.59881   0.35811   0.54787  -0.13653
C          C       0.63248   0.33364   0.54910  -0.10058
C          C       0.49840   0.43809   0.46915   0.07505
C          C       0.46783   0.43892   0.49851  -0.18183
C          C       0.81328   0.29359   0.98579   0.59456
C          C       0.85017   0.31948   0.98640  -0.04042
C          C       0.86710   0.32974   0.02341  -0.13567
C          C       0.90183   0.35452   0.02567   0.05962
C          C       0.91963   0.36564   0.06316  -0.13101
C          C       0.95227   0.39139   0.06452  -0.14201
C          C       0.96948   0.40736   0.02843   0.07170
C          C       0.95342   0.39562   0.99141  -0.18494
C          C       0.91957   0.36944   0.98902   0.08123
C          C       0.90186   0.35809   0.95149  -0.13977
C          C       0.86804   0.33381   0.95009  -0.10067
C          C       0.00224   0.43767   0.03071   0.07536
C          C       0.03285   0.43918   0.00143  -0.18130
C          C       0.68672   0.20592   0.98570   0.59521
C          C       0.64998   0.17998   0.98615  -0.04158
C          C       0.63323   0.16960   0.02316  -0.13470
C          C       0.59850   0.14493   0.02545   0.05929
C          C       0.58089   0.13390   0.06303  -0.12996
C          C       0.54810   0.10838   0.06448  -0.14390
C          C       0.53076   0.09255   0.02840   0.07130
C          C       0.54670   0.10417   0.99131  -0.18374
C          C       0.58062   0.13020   0.98880   0.08224
C          C       0.59818   0.14160   0.95123  -0.13757
C          C       0.63201   0.16585   0.94980  -0.09974
C          C       0.49794   0.06238   0.03077   0.07333
C          C       0.46706   0.06127   0.00178  -0.18254
C          C       0.20592   0.98570   0.68672   0.59513
C          C       0.17998   0.98616   0.64998  -0.04152
C          C       0.16960   0.02316   0.63323  -0.13470
C          C       0.14494   0.02545   0.59850   0.05924
C          C       0.13390   0.06303   0.58089  -0.13007
C          C       0.10838   0.06448   0.54810  -0.14379
C          C       0.09255   0.02840   0.53076   0.07148
C          C       0.10417   0.99131   0.54670  -0.18386
C          C       0.13020   0.98880   0.58062   0.08230
C          C       0.14160   0.95123   0.59818  -0.13764
C          C       0.16586   0.94980   0.63201  -0.09978
C          C       0.06238   0.03077   0.49794   0.07335
C          C       0.06127   0.00178   0.46706  -0.18260
C          C       0.29359   0.98579   0.81328   0.59444
C          C       0.31949   0.98640   0.85017  -0.04044
C          C       0.32974   0.02341   0.86711  -0.13700
C          C       0.35452   0.02567   0.90183   0.05952
C          C       0.36565   0.06316   0.91963  -0.13101
C          C       0.39139   0.06452   0.95227  -0.14211
C          C       0.40737   0.02843   0.96948   0.07200
C          C       0.39562   0.99141   0.95341  -0.18532
C          C       0.36944   0.98902   0.91956   0.08150
C          C       0.35809   0.95149   0.90186  -0.13989
C          C       0.33381   0.95009   0.86804  -0.10061
C          C       0.43767   0.03071   0.00224   0.07550
C          C       0.43918   0.00143   0.03285  -0.18131
C          C       0.29348   0.51333   0.68704   0.59782
C          C       0.31960   0.51270   0.65038  -0.04199
C          C       0.33026   0.47574   0.63366  -0.13287
C          C       0.35522   0.47362   0.59908   0.05854
C          C       0.36669   0.43617   0.58143  -0.12898
C          C       0.39243   0.43494   0.54877  -0.14369
C          C       0.40806   0.47112   0.53145   0.07029
C          C       0.39605   0.50807   0.54750  -0.18490
C          C       0.36985   0.51037   0.58131   0.08113
C          C       0.35811   0.54787   0.59881  -0.13645
C          C       0.33364   0.54910   0.63248  -0.10060
C          C       0.43809   0.46915   0.49840   0.07502
C          C       0.43892   0.49851   0.46783  -0.18180
C          C       0.20580   0.51492   0.81299   0.59312
C          C       0.18012   0.51427   0.84993  -0.04084
C          C       0.16977   0.47719   0.86660  -0.13656
C          C       0.14522   0.47481   0.90144   0.05873
C          C       0.13400   0.43729   0.91910  -0.12901
C          C       0.10834   0.43598   0.95180  -0.14302
C          C       0.09251   0.47206   0.96912   0.06965
C          C       0.10448   0.50907   0.95325  -0.18357
C          C       0.13065   0.51147   0.91944   0.08218
C          C       0.14222   0.54909   0.90208  -0.14096
C          C       0.16630   0.55060   0.86814  -0.09931
C          C       0.06231   0.46968   0.00195   0.07444
C          C       0.06104   0.49877   0.03273  -0.17996
C          C       0.98579   0.81328   0.29359   0.59418
C          C       0.98640   0.85017   0.31948  -0.04038
C          C       0.02341   0.86711   0.32974  -0.13573
C          C       0.02567   0.90183   0.35452   0.05957
C          C       0.06316   0.91963   0.36564  -0.13103
C          C       0.06453   0.95228   0.39139  -0.14201
C          C       0.02843   0.96948   0.40736   0.07172
C          C       0.99141   0.95342   0.39562  -0.18530
C          C       0.98902   0.91956   0.36944   0.08145
C          C       0.95149   0.90186   0.35809  -0.13982
C          C       0.95009   0.86804   0.33381  -0.10074
C          C       0.03071   0.00224   0.43767   0.07547
C          C       0.00143   0.03285   0.43918  -0.18136
C          C       0.98570   0.68672   0.20592   0.59497
C          C       0.98615   0.64998   0.17998  -0.04147
C          C       0.02316   0.63323   0.16960  -0.13463
C          C       0.02545   0.59850   0.14493   0.05910
C          C       0.06303   0.58089   0.13390  -0.13001
C          C       0.06448   0.54810   0.10838  -0.14385
C          C       0.02840   0.53076   0.09255   0.07134
C          C       0.99131   0.54670   0.10417  -0.18379
C          C       0.98880   0.58062   0.13020   0.08219
C          C       0.95123   0.59818   0.14160  -0.13743
C          C       0.94980   0.63201   0.16585  -0.09987
C          C       0.03077   0.49794   0.06238   0.07327
C          C       0.00178   0.46706   0.06127  -0.18247
C          C       0.51492   0.81299   0.20579   0.59330
C          C       0.51427   0.84993   0.18011  -0.04078
C          C       0.47719   0.86660   0.16977  -0.13667
C          C       0.47481   0.90144   0.14522   0.05883
C          C       0.43729   0.91910   0.13400  -0.12903
C          C       0.43598   0.95180   0.10834  -0.14310
C          C       0.47206   0.96912   0.09251   0.06963
C          C       0.50907   0.95325   0.10448  -0.18346
C          C       0.51147   0.91944   0.13065   0.08207
C          C       0.54909   0.90208   0.14222  -0.14094
C          C       0.55060   0.86814   0.16629  -0.09936
C          C       0.46968   0.00195   0.06231   0.07443
C          C       0.49877   0.03273   0.06104  -0.18005
C          C       0.51333   0.68704   0.29348   0.59775
C          C       0.51270   0.65038   0.31960  -0.04194
C          C       0.47574   0.63366   0.33026  -0.13293
C          C       0.47362   0.59908   0.35522   0.05856
C          C       0.43617   0.58143   0.36668  -0.12892
C          C       0.43494   0.54877   0.39243  -0.14375
C          C       0.47113   0.53145   0.40806   0.07032
C          C       0.50807   0.54750   0.39605  -0.18491
C          C       0.51037   0.58131   0.36985   0.08118
C          C       0.54787   0.59881   0.35811  -0.13658
C          C       0.54910   0.63248   0.33364  -0.10051
C          C       0.46915   0.49840   0.43809   0.07502
C          C       0.49851   0.46783   0.43892  -0.18190
C          C       0.79410   0.18686   0.01413   0.59510
C          C       0.81997   0.15008   0.01355  -0.04086
C          C       0.83022   0.13327   0.97652  -0.13656
C          C       0.85478   0.09843   0.97424   0.05828
C          C       0.86574   0.08060   0.93672  -0.13040
C          C       0.89136   0.04786   0.93536  -0.14472
C          C       0.90733   0.03065   0.97147   0.07201
C          C       0.89557   0.04666   0.00850  -0.18534
C          C       0.86951   0.08057   0.01092   0.08270
C          C       0.85813   0.09815   0.04850  -0.13775
C          C       0.83405   0.13209   0.04988  -0.09971
C          C       0.93755   0.99782   0.96920   0.07424
C          C       0.93878   0.96709   0.99835  -0.18250
C          C       0.70673   0.31351   0.01412   0.59548
C          C       0.68064   0.35021   0.01372  -0.04113
C          C       0.67010   0.36703   0.97678  -0.13483
C          C       0.64516   0.40162   0.97460   0.05811
C          C       0.63402   0.41936   0.93710  -0.13017
C          C       0.60830   0.45202   0.93577  -0.14356
C          C       0.59235   0.46918   0.97189   0.07092
C          C       0.60412   0.45316   0.00892  -0.18474
C          C       0.63031   0.41932   0.01130   0.08242
C          C       0.64180   0.40164   0.04880  -0.13801
C          C       0.66625   0.36795   0.05008  -0.10002
C          C       0.56205   0.50193   0.96953   0.07371
C          C       0.56062   0.53262   0.99871  -0.18126
C          C       0.70660   0.18672   0.48509   0.59429
C          C       0.68071   0.14986   0.48594  -0.04144
C          C       0.67022   0.13320   0.52299  -0.13624
C          C       0.64537   0.09852   0.52528   0.05890
C          C       0.63394   0.08087   0.56276  -0.12831
C          C       0.60815   0.04824   0.56405  -0.14214
C          C       0.59236   0.03093   0.52790   0.07080
C          C       0.60448   0.04680   0.49093  -0.18445
C          C       0.63072   0.08059   0.48859   0.08264
C          C       0.64232   0.09802   0.45101  -0.13766
C          C       0.66662   0.13181   0.44964  -0.09982
C          C       0.56209   0.99812   0.53014   0.07401
C          C       0.56079   0.96728   0.50107  -0.18114
C          C       0.79505   0.31207   0.48505   0.59653
C          C       0.82088   0.34891   0.48581  -0.04173
C          C       0.83107   0.36575   0.52285  -0.13430
C          C       0.85534   0.40080   0.52518   0.06006
C          C       0.86629   0.41864   0.56270  -0.12909
C          C       0.89163   0.45160   0.56408  -0.14401
C          C       0.90742   0.46902   0.52802   0.06985
C          C       0.89561   0.45304   0.49098  -0.18404
C          C       0.86983   0.41891   0.48854   0.08151
C          C       0.85857   0.40127   0.45095  -0.13875
C          C       0.83479   0.36712   0.44951  -0.10102
C          C       0.93769   0.50181   0.53040   0.07390
C          C       0.93901   0.53262   0.50134  -0.18021
C          C       0.01413   0.79410   0.18686   0.59498
C          C       0.01355   0.81997   0.15008  -0.04098
C          C       0.97652   0.83022   0.13326  -0.13672
C          C       0.97424   0.85478   0.09843   0.05839
C          C       0.93672   0.86574   0.08060  -0.13052
C          C       0.93536   0.89136   0.04785  -0.14467
C          C       0.97147   0.90733   0.03064   0.07201
C          C       0.00850   0.89557   0.04666  -0.18541
C          C       0.01092   0.86951   0.08057   0.08254
C          C       0.04850   0.85813   0.09815  -0.13764
C          C       0.04988   0.83405   0.13209  -0.09968
C          C       0.96920   0.93755   0.99782   0.07426
C          C       0.99835   0.93878   0.96708  -0.18238
C          C       0.01412   0.70673   0.31351   0.59526
C          C       0.01372   0.68064   0.35021  -0.04113
C          C       0.97678   0.67010   0.36703  -0.13482
C          C       0.97460   0.64516   0.40162   0.05808
C          C       0.93710   0.63402   0.41936  -0.13004
C          C       0.93577   0.60830   0.45202  -0.14366
C          C       0.97189   0.59235   0.46918   0.07085
C          C       0.00892   0.60412   0.45316  -0.18453
C          C       0.01130   0.63031   0.41932   0.08221
C          C       0.04881   0.64180   0.40164  -0.13792
C          C       0.05009   0.66625   0.36795  -0.10013
C          C       0.96953   0.56205   0.50192   0.07373
C          C       0.99871   0.56062   0.53262  -0.18125
C          C       0.48509   0.70660   0.18671   0.59439
C          C       0.48594   0.68071   0.14986  -0.04147
C          C       0.52299   0.67022   0.13320  -0.13620
C          C       0.52528   0.64537   0.09852   0.05888
C          C       0.56276   0.63394   0.08086  -0.12804
C          C       0.56405   0.60815   0.04824  -0.14219
C          C       0.52790   0.59236   0.03093   0.07098
C          C       0.49093   0.60448   0.04680  -0.18452
C          C       0.48859   0.63072   0.08059   0.08242
C          C       0.45101   0.64231   0.09802  -0.13763
C          C       0.44964   0.66662   0.13181  -0.09970
C          C       0.53014   0.56209   0.99812   0.07397
C          C       0.50108   0.56079   0.96728  -0.18122
C          C       0.48505   0.79505   0.31207   0.59666
C          C       0.48581   0.82088   0.34891  -0.04176
C          C       0.52285   0.83107   0.36575  -0.13418
C          C       0.52518   0.85534   0.40080   0.06017
C          C       0.56270   0.86629   0.41864  -0.12911
C          C       0.56408   0.89163   0.45160  -0.14392
C          C       0.52802   0.90742   0.46902   0.06971
C          C       0.49098   0.89561   0.45304  -0.18394
C          C       0.48854   0.86983   0.41891   0.08142
C          C       0.45095   0.85857   0.40127  -0.13887
C          C       0.44951   0.83479   0.36712  -0.10108
C          C       0.53040   0.93769   0.50181   0.07415
C          C       0.50134   0.93901   0.53262  -0.18040
C          C       0.18686   0.01413   0.79410   0.59469
C          C       0.15008   0.01355   0.81997  -0.04093
C          C       0.13327   0.97652   0.83022  -0.13662
C          C       0.09843   0.97424   0.85478   0.05829
C          C       0.08060   0.93672   0.86574  -0.13051
C          C       0.04786   0.93536   0.89136  -0.14480
C          C       0.03065   0.97147   0.90733   0.07197
C          C       0.04667   0.00850   0.89557  -0.18525
C          C       0.08057   0.01092   0.86951   0.08264
C          C       0.09815   0.04850   0.85813  -0.13768
C          C       0.13209   0.04988   0.83405  -0.09957
C          C       0.99782   0.96920   0.93755   0.07421
C          C       0.96709   0.99835   0.93878  -0.18245
C          C       0.31351   0.01412   0.70673   0.59546
C          C       0.35021   0.01372   0.68064  -0.04110
C          C       0.36703   0.97678   0.67010  -0.13480
C          C       0.40162   0.97461   0.64516   0.05807
C          C       0.41936   0.93710   0.63402  -0.13021
C          C       0.45202   0.93577   0.60830  -0.14361
C          C       0.46918   0.97189   0.59235   0.07098
C          C       0.45316   0.00892   0.60412  -0.18467
C          C       0.41932   0.01130   0.63031   0.08237
C          C       0.40164   0.04881   0.64180  -0.13781
C          C       0.36795   0.05009   0.66625  -0.10019
C          C       0.50193   0.96953   0.56205   0.07380
C          C       0.53262   0.99871   0.56062  -0.18141
C          C       0.18672   0.48509   0.70660   0.59425
C          C       0.14987   0.48594   0.68071  -0.04144
C          C       0.13320   0.52299   0.67022  -0.13611
C          C       0.09852   0.52528   0.64537   0.05883
C          C       0.08087   0.56276   0.63394  -0.12817
C          C       0.04824   0.56405   0.60815  -0.14204
C          C       0.03093   0.52790   0.59236   0.07079
C          C       0.04680   0.49093   0.60448  -0.18453
C          C       0.08059   0.48859   0.63072   0.08260
C          C       0.09803   0.45101   0.64232  -0.13769
C          C       0.13181   0.44964   0.66662  -0.09978
C          C       0.99812   0.53014   0.56209   0.07370
C          C       0.96728   0.50108   0.56079  -0.18099
C          C       0.31207   0.48505   0.79505   0.59657
C          C       0.34891   0.48581   0.82088  -0.04166
C          C       0.36575   0.52286   0.83107  -0.13426
C          C       0.40080   0.52519   0.85534   0.06015
C          C       0.41864   0.56270   0.86629  -0.12909
C          C       0.45160   0.56408   0.89163  -0.14388
C          C       0.46902   0.52802   0.90742   0.06963
C          C       0.45304   0.49098   0.89561  -0.18387
C          C       0.41891   0.48855   0.86983   0.08147
C          C       0.40127   0.45095   0.85857  -0.13881
C          C       0.36712   0.44951   0.83479  -0.10122
C          C       0.50181   0.53040   0.93769   0.07415
C          C       0.53262   0.50134   0.93900  -0.18021
O          O       0.21624   0.79853   0.01997  -0.57535
O          O       0.21624   0.79829   0.95129  -0.53359
O          O       0.28299   0.70111   0.02000  -0.57535
O          O       0.28275   0.70124   0.95131  -0.53584
O          O       0.28305   0.79835   0.48098  -0.57839
O          O       0.28305   0.79867   0.54962  -0.53388
O          O       0.21622   0.70224   0.48102  -0.57967
O          O       0.21449   0.70305   0.54966  -0.53441
O          O       0.01997   0.21624   0.79853  -0.57527
O          O       0.95129   0.21624   0.79829  -0.53366
O          O       0.02000   0.28299   0.70111  -0.57504
O          O       0.95131   0.28275   0.70124  -0.53594
O          O       0.48098   0.28305   0.79835  -0.57849
O          O       0.54962   0.28305   0.79867  -0.53373
O          O       0.48102   0.21622   0.70224  -0.57986
O          O       0.54966   0.21449   0.70305  -0.53438
O          O       0.79853   0.01997   0.21624  -0.57530
O          O       0.79829   0.95129   0.21624  -0.53357
O          O       0.70111   0.02000   0.28299  -0.57499
O          O       0.70124   0.95131   0.28274  -0.53583
O          O       0.79835   0.48098   0.28305  -0.57835
O          O       0.79866   0.54962   0.28305  -0.53376
O          O       0.70224   0.48102   0.21622  -0.57978
O          O       0.70305   0.54966   0.21449  -0.53436
O          O       0.20178   0.78395   0.51909  -0.57500
O          O       0.20187   0.78392   0.45044  -0.53495
O          O       0.29824   0.71704   0.52067  -0.57596
O          O       0.29854   0.71695   0.45193  -0.53666
O          O       0.20121   0.71696   0.98013  -0.57533
O          O       0.20168   0.71676   0.04876  -0.53399
O          O       0.29873   0.78372   0.98017  -0.57549
O          O       0.29852   0.78368   0.04888  -0.53487
O          O       0.78372   0.98017   0.29873  -0.57551
O          O       0.78368   0.04888   0.29852  -0.53473
O          O       0.71696   0.98013   0.20120  -0.57544
O          O       0.71676   0.04876   0.20168  -0.53400
O          O       0.71703   0.52067   0.29824  -0.57590
O          O       0.71695   0.45193   0.29854  -0.53672
O          O       0.78395   0.51909   0.20178  -0.57497
O          O       0.78392   0.45044   0.20187  -0.53492
O          O       0.98013   0.20121   0.71696  -0.57560
O          O       0.04876   0.20168   0.71676  -0.53390
O          O       0.98017   0.29873   0.78372  -0.57573
O          O       0.04888   0.29852   0.78368  -0.53460
O          O       0.51909   0.20178   0.78395  -0.57488
O          O       0.45044   0.20187   0.78392  -0.53503
O          O       0.52067   0.29824   0.71704  -0.57583
O          O       0.45193   0.29854   0.71695  -0.53679
O          O       0.79822   0.21605   0.48091  -0.57512
O          O       0.79814   0.21609   0.54957  -0.53479
O          O       0.70177   0.28297   0.47934  -0.57625
O          O       0.70147   0.28305   0.54807  -0.53645
O          O       0.79880   0.28305   0.01987  -0.57557
O          O       0.79832   0.28324   0.95124  -0.53455
O          O       0.70127   0.21628   0.01984  -0.57520
O          O       0.70149   0.21633   0.95113  -0.53507
O          O       0.21628   0.01984   0.70127  -0.57506
O          O       0.21633   0.95113   0.70149  -0.53515
O          O       0.28305   0.01987   0.79880  -0.57540
O          O       0.28324   0.95124   0.79832  -0.53470
O          O       0.28298   0.47934   0.70178  -0.57636
O          O       0.28306   0.54807   0.70147  -0.53630
O          O       0.21606   0.48091   0.79822  -0.57533
O          O       0.21609   0.54957   0.79814  -0.53457
O          O       0.01987   0.79880   0.28305  -0.57520
O          O       0.95124   0.79832   0.28324  -0.53455
O          O       0.01984   0.70127   0.21628  -0.57507
O          O       0.95113   0.70149   0.21632  -0.53506
O          O       0.48092   0.79822   0.21605  -0.57539
O          O       0.54957   0.79814   0.21609  -0.53472
O          O       0.47934   0.70177   0.28297  -0.57631
O          O       0.54807   0.70147   0.28305  -0.53633
O          O       0.78376   0.20147   0.98003  -0.57541
O          O       0.78377   0.20172   0.04871  -0.53325
O          O       0.71702   0.29890   0.98000  -0.57539
O          O       0.71726   0.29877   0.04869  -0.53554
O          O       0.71695   0.20166   0.51903  -0.57820
O          O       0.71696   0.20134   0.45039  -0.53409
O          O       0.78378   0.29777   0.51899  -0.57939
O          O       0.78552   0.29695   0.45035  -0.53496
O          O       0.98003   0.78376   0.20147  -0.57552
O          O       0.04871   0.78377   0.20172  -0.53296
O          O       0.98000   0.71702   0.29890  -0.57545
O          O       0.04869   0.71726   0.29877  -0.53532
O          O       0.51903   0.71695   0.20166  -0.57812
O          O       0.45039   0.71696   0.20133  -0.53430
O          O       0.51899   0.78378   0.29776  -0.57934
O          O       0.45035   0.78552   0.29695  -0.53516
O          O       0.20147   0.98003   0.78376  -0.57546
O          O       0.20172   0.04871   0.78376  -0.53274
O          O       0.29890   0.98001   0.71701  -0.57550
O          O       0.29877   0.04869   0.71726  -0.53540
O          O       0.20166   0.51903   0.71695  -0.57807
O          O       0.20134   0.45039   0.71696  -0.53422
O          O       0.29777   0.51899   0.78378  -0.57927
O          O       0.29695   0.45035   0.78552  -0.53517

