data_crystal

_audit_creation_method 'AiiDA-DDEC plugin'

_cell_length_a        17.86366
_cell_length_b        29.86264
_cell_length_c        29.83803

_cell_angle_alpha     84.82511
_cell_angle_beta     72.59525
_cell_angle_gamma     72.62793

_symmetry_space_group_name_Hall 'P 1'
_symmetry_space_group_name_H-M  'P 1'

loop_
_symmetry_equiv_pos_as_xyz
 'x,y,z'

loop_
_atom_site_label
_atom_site_type_symbol
_atom_site_fract_x
_atom_site_fract_y
_atom_site_fract_z
_atom_site_charge
Mn         Mn      0.56706   0.08603   0.35754   0.98129
Mn         Mn      0.29903   0.11564   0.46572   1.00572
Mn         Mn      0.21536   0.99620   0.57485   0.97515
Mn         Mn      0.00999   0.41396   0.14246   0.98037
Mn         Mn      0.88015   0.38370   0.03410   1.00561
Mn         Mn      0.78623   0.50372   0.92512   0.97500
Mn         Mn      0.15236   0.35776   0.41389   0.98178
Mn         Mn      0.91441   0.46581   0.38337   1.00389
Mn         Mn      0.71171   0.57479   0.50350   0.97384
Mn         Mn      0.92366   0.14245   0.08603   0.98119
Mn         Mn      0.76445   0.03391   0.11606   1.00523
Mn         Mn      0.79080   0.92480   0.99628   0.97577
Mn         Mn      0.43294   0.91397   0.64246   0.98116
Mn         Mn      0.70097   0.88436   0.53428   1.00574
Mn         Mn      0.78464   0.00381   0.42515   0.97522
Mn         Mn      0.99001   0.58604   0.85754   0.98035
Mn         Mn      0.11984   0.61630   0.96590   1.00559
Mn         Mn      0.21376   0.49628   0.07488   0.97511
Mn         Mn      0.84763   0.64224   0.58611   0.98155
Mn         Mn      0.08559   0.53419   0.61663   1.00399
Mn         Mn      0.28828   0.42521   0.49650   0.97387
Mn         Mn      0.07634   0.85755   0.91397   0.98150
Mn         Mn      0.23554   0.96609   0.88394   1.00540
Mn         Mn      0.20920   0.07521   0.00372   0.97570
H          H       0.32987   0.24822   0.40919   0.10450
H          H       0.37157   0.31426   0.36420   0.11453
H          H       0.51301   0.29966   0.30819   0.09521
H          H       0.60846   0.21838   0.29786   0.12592
H          H       0.48692   0.97902   0.46220   0.15679
H          H       0.38151   0.00773   0.46791   0.15682
H          H       0.44393   0.97165   0.41812   0.16585
H          H       0.02320   0.65804   0.57176   0.09130
H          H       0.08957   0.72193   0.55883   0.11968
H          H       0.84891   0.82052   0.57868   0.12211
H          H       0.79312   0.75253   0.58956   0.09835
H          H       0.05230   0.81586   0.52329   0.10483
H          H       0.96323   0.85117   0.56234   0.10093
H          H       0.09526   0.01350   0.46798   0.11510
H          H       0.05380   0.02533   0.39396   0.11453
H          H       0.10967   0.07842   0.33193   0.10098
H          H       0.20404   0.11977   0.34509   0.12561
H          H       0.29676   0.11502   0.61782   0.16601
H          H       0.29393   0.05525   0.62353   0.15694
H          H       0.38698   0.06905   0.59416   0.15738
H          H       0.76895   0.01149   0.24680   0.11047
H          H       0.89931   0.96467   0.19418   0.11093
H          H       0.01540   0.92333   0.22793   0.09863
H          H       0.99637   0.92822   0.31371   0.12608
H          H       0.53966   0.13658   0.45734   0.15928
H          H       0.58348   0.12235   0.50542   0.15819
H          H       0.51696   0.09169   0.49762   0.15420
H          H       0.12555   0.93633   0.65456   0.09095
H          H       0.07066   0.86750   0.66451   0.11979
H          H       0.12487   0.86395   0.51347   0.12190
H          H       0.17752   0.93307   0.51003   0.09774
H          H       0.02084   0.81624   0.63051   0.10707
H          H       0.11173   0.78538   0.58989   0.10444
H          H       0.98738   0.25138   0.09045   0.10479
H          H       0.05020   0.18543   0.13551   0.11459
H          H       0.12036   0.20026   0.19180   0.09472
H          H       0.12328   0.28168   0.20248   0.12623
H          H       0.92856   0.52072   0.03765   0.15684
H          H       0.85747   0.49221   0.03162   0.15620
H          H       0.83387   0.52815   0.08155   0.16603
H          H       0.25313   0.84212   0.92839   0.09208
H          H       0.37055   0.77824   0.94123   0.11792
H          H       0.24841   0.67957   0.92122   0.12181
H          H       0.13537   0.74756   0.91047   0.09861
H          H       0.39150   0.68430   0.97671   0.10645
H          H       0.37665   0.64898   0.93770   0.10121
H          H       0.57682   0.48644   0.03222   0.11682
H          H       0.47315   0.47454   0.10618   0.11657
H          H       0.52014   0.42158   0.16824   0.10078
H          H       0.66883   0.38009   0.15500   0.12551
H          H       0.02945   0.38491   0.88186   0.16503
H          H       0.97223   0.44470   0.87670   0.15624
H          H       0.04975   0.43075   0.90600   0.15731
H          H       0.02785   0.48813   0.25302   0.11150
H          H       0.05793   0.53527   0.30577   0.11151
H          H       0.16610   0.57689   0.27223   0.09860
H          H       0.23837   0.57189   0.18656   0.12601
H          H       0.13446   0.36330   0.04239   0.15958
H          H       0.21202   0.37776   0.99435   0.15793
H          H       0.10709   0.40821   0.00207   0.15409
H          H       0.71629   0.56360   0.84557   0.09062
H          H       0.60260   0.63238   0.83552   0.12045
H          H       0.50202   0.63602   0.98652   0.12176
H          H       0.62028   0.56695   0.99008   0.09677
H          H       0.46773   0.68374   0.86946   0.10562
H          H       0.48730   0.71460   0.91003   0.10518
H          H       0.07854   0.40887   0.25071   0.10549
H          H       0.18682   0.36394   0.18507   0.11433
H          H       0.31305   0.30800   0.20041   0.09435
H          H       0.32605   0.29775   0.28203   0.12723
H          H       0.96583   0.46261   0.52044   0.15678
H          H       0.88932   0.46852   0.49154   0.15639
H          H       0.91482   0.41875   0.52784   0.16687
H          H       0.18172   0.57127   0.84192   0.09109
H          H       0.31194   0.55883   0.77804   0.11748
H          H       0.17004   0.57873   0.67920   0.12089
H          H       0.04629   0.58901   0.74718   0.09771
H          H       0.36849   0.52337   0.68402   0.10686
H          H       0.31471   0.56234   0.64861   0.10160
H          H       0.60952   0.46790   0.48617   0.11508
H          H       0.57927   0.39406   0.47455   0.11667
H          H       0.68803   0.33192   0.42169   0.10014
H          H       0.82397   0.34485   0.38035   0.12555
H          H       0.91302   0.61782   0.38360   0.16609
H          H       0.85107   0.62319   0.44356   0.15838
H          H       0.95757   0.59318   0.42925   0.15725
H          H       0.28113   0.24684   0.48818   0.11116
H          H       0.36422   0.19423   0.53537   0.11116
H          H       0.43856   0.22796   0.57698   0.09903
H          H       0.42451   0.31366   0.57205   0.12726
H          H       0.17635   0.45711   0.36348   0.15896
H          H       0.20604   0.50528   0.37735   0.15854
H          H       0.10873   0.49763   0.40805   0.15414
H          H       0.56344   0.65414   0.56335   0.09067
H          H       0.43931   0.66432   0.63190   0.12122
H          H       0.48893   0.51343   0.63577   0.12127
H          H       0.61128   0.50981   0.56698   0.09751
H          H       0.33787   0.63047   0.68318   0.10622
H          H       0.39770   0.58997   0.71425   0.10507
H          H       0.73847   0.09029   0.24869   0.10462
H          H       0.73527   0.13524   0.31467   0.11520
H          H       0.82031   0.19152   0.29987   0.09512
H          H       0.90508   0.20205   0.21838   0.12622
H          H       0.95058   0.03746   0.97913   0.15630
H          H       0.85152   0.03066   0.00781   0.15693
H          H       0.86261   0.08079   0.97184   0.16599
H          H       0.59366   0.92832   0.65849   0.09117
H          H       0.64750   0.94113   0.72224   0.11975
H          H       0.42692   0.92121   0.82130   0.12115
H          H       0.38142   0.91058   0.75339   0.09754
H          H       0.57480   0.97665   0.81626   0.10626
H          H       0.52518   0.93742   0.85170   0.10132
H          H       0.56272   0.03125   0.01434   0.11483
H          H       0.44727   0.10515   0.02592   0.11597
H          H       0.44241   0.16781   0.07771   0.10114
H          H       0.55098   0.15542   0.11814   0.12505
H          H       0.91263   0.88178   0.11652   0.16603
H          H       0.91550   0.87648   0.05662   0.15841
H          H       0.97993   0.90517   0.07058   0.15781
H          H       0.01557   0.25345   0.01176   0.11176
H          H       0.09340   0.30601   0.96472   0.11103
H          H       0.24308   0.27232   0.92318   0.09847
H          H       0.30971   0.18659   0.92824   0.12660
H          H       0.99721   0.04245   0.13707   0.15948
H          H       0.08963   0.99481   0.12238   0.15777
H          H       0.01479   0.00218   0.09218   0.15437
H          H       0.78032   0.84546   0.93638   0.09060
H          H       0.73487   0.83557   0.86773   0.12073
H          H       0.63823   0.98647   0.86410   0.12260
H          H       0.68792   0.98986   0.93306   0.10210
H          H       0.65120   0.86956   0.81644   0.10594
H          H       0.70105   0.91040   0.78554   0.10461
H          H       0.67013   0.75178   0.59081   0.10440
H          H       0.62842   0.68574   0.63581   0.11427
H          H       0.48699   0.70035   0.69181   0.09507
H          H       0.39153   0.78162   0.70214   0.12604
H          H       0.51308   0.02098   0.53781   0.15699
H          H       0.61849   0.99228   0.53209   0.15668
H          H       0.55607   0.02835   0.58188   0.16598
H          H       0.97680   0.34196   0.42824   0.09158
H          H       0.91043   0.27807   0.44117   0.11984
H          H       0.15109   0.17949   0.42132   0.12195
H          H       0.20687   0.24748   0.41044   0.09822
H          H       0.94770   0.18415   0.47671   0.10500
H          H       0.03677   0.14883   0.43766   0.10053
H          H       0.90473   0.98650   0.53202   0.11521
H          H       0.94619   0.97467   0.60604   0.11459
H          H       0.89033   0.92158   0.66807   0.10091
H          H       0.79595   0.88023   0.65491   0.12557
H          H       0.70324   0.88499   0.38218   0.16582
H          H       0.70607   0.94476   0.37648   0.15707
H          H       0.61302   0.93095   0.40584   0.15761
H          H       0.23104   0.98851   0.75321   0.11028
H          H       0.10068   0.03533   0.80582   0.11099
H          H       0.98460   0.07668   0.77207   0.09896
H          H       0.00362   0.07178   0.68629   0.12633
H          H       0.46033   0.86343   0.54266   0.15902
H          H       0.41652   0.87766   0.49458   0.15809
H          H       0.48304   0.90832   0.50238   0.15424
H          H       0.87444   0.06367   0.34544   0.09082
H          H       0.92934   0.13250   0.33549   0.11975
H          H       0.87513   0.13606   0.48653   0.12206
H          H       0.82247   0.06694   0.48997   0.09770
H          H       0.97915   0.18376   0.36950   0.10580
H          H       0.88827   0.21463   0.41011   0.10473
H          H       0.01261   0.74863   0.90955   0.10479
H          H       0.94979   0.81457   0.86449   0.11480
H          H       0.87963   0.79975   0.80820   0.09488
H          H       0.87671   0.71832   0.79752   0.12626
H          H       0.07143   0.47928   0.96235   0.15687
H          H       0.14253   0.50780   0.96838   0.15623
H          H       0.16612   0.47185   0.91845   0.16580
H          H       0.74687   0.15788   0.07161   0.09174
H          H       0.62944   0.22176   0.05877   0.11792
H          H       0.75158   0.32044   0.07878   0.12205
H          H       0.86463   0.25245   0.08953   0.09845
H          H       0.60850   0.31571   0.02329   0.10635
H          H       0.62334   0.35103   0.06230   0.10144
H          H       0.42318   0.51357   0.96778   0.11669
H          H       0.52684   0.52546   0.89382   0.11628
H          H       0.47986   0.57842   0.83176   0.10061
H          H       0.33117   0.61992   0.84500   0.12565
H          H       0.97054   0.61510   0.11814   0.16521
H          H       0.02777   0.55530   0.12330   0.15609
H          H       0.95025   0.56926   0.09400   0.15682
H          H       0.97214   0.51187   0.74698   0.11153
H          H       0.94206   0.46474   0.69423   0.11141
H          H       0.83390   0.42312   0.72777   0.09846
H          H       0.76163   0.42811   0.81344   0.12596
H          H       0.86553   0.63671   0.95761   0.15970
H          H       0.78797   0.62224   0.00565   0.15819
H          H       0.89291   0.59180   0.99793   0.15394
H          H       0.28371   0.43640   0.15443   0.09094
H          H       0.39740   0.36762   0.16448   0.12035
H          H       0.49797   0.36398   0.01348   0.12168
H          H       0.37972   0.43305   0.00992   0.09688
H          H       0.53226   0.31626   0.13054   0.10564
H          H       0.51269   0.28540   0.08998   0.10492
H          H       0.92145   0.59114   0.74929   0.10529
H          H       0.81317   0.63606   0.81493   0.11432
H          H       0.68695   0.69200   0.79959   0.09466
H          H       0.67394   0.70225   0.71797   0.12742
H          H       0.03417   0.53740   0.47957   0.15671
H          H       0.11068   0.53148   0.50846   0.15614
H          H       0.08517   0.58125   0.47216   0.16689
H          H       0.81828   0.42874   0.15808   0.09099
H          H       0.68806   0.44117   0.22196   0.11765
H          H       0.82996   0.42127   0.32081   0.12097
H          H       0.95371   0.41099   0.25282   0.09756
H          H       0.63150   0.47663   0.31599   0.10721
H          H       0.68528   0.43767   0.35139   0.10164
H          H       0.39047   0.53211   0.51383   0.11490
H          H       0.42072   0.60594   0.52545   0.11666
H          H       0.31197   0.66808   0.57831   0.10040
H          H       0.17603   0.65516   0.61965   0.12577
H          H       0.08698   0.38218   0.61640   0.16606
H          H       0.14893   0.37681   0.55644   0.15823
H          H       0.04242   0.40683   0.57075   0.15739
H          H       0.71886   0.75316   0.51182   0.11120
H          H       0.63577   0.80577   0.46463   0.11134
H          H       0.56143   0.77205   0.42302   0.09924
H          H       0.57548   0.68635   0.42795   0.12719
H          H       0.82365   0.54289   0.63652   0.15910
H          H       0.79396   0.49472   0.62265   0.15843
H          H       0.89127   0.50237   0.59195   0.15387
H          H       0.43656   0.34586   0.43666   0.09058
H          H       0.56069   0.33568   0.36810   0.12098
H          H       0.51106   0.48657   0.36423   0.12141
H          H       0.38872   0.49020   0.43302   0.09774
H          H       0.66212   0.36954   0.31682   0.10582
H          H       0.60229   0.41004   0.28575   0.10510
H          H       0.26152   0.90971   0.75132   0.10474
H          H       0.26473   0.86476   0.68533   0.11512
H          H       0.17968   0.80849   0.70013   0.09492
H          H       0.09491   0.79796   0.78162   0.12611
H          H       0.04942   0.96255   0.02087   0.15653
H          H       0.14847   0.96934   0.99219   0.15698
H          H       0.13738   0.91922   0.02817   0.16570
H          H       0.40634   0.07169   0.34151   0.09122
H          H       0.35250   0.05887   0.27776   0.11983
H          H       0.57308   0.07879   0.17870   0.12109
H          H       0.61857   0.08942   0.24661   0.09750
H          H       0.42520   0.02335   0.18374   0.10615
H          H       0.47482   0.06258   0.14830   0.10129
H          H       0.43727   0.96876   0.98566   0.11501
H          H       0.55273   0.89486   0.97408   0.11590
H          H       0.55759   0.83219   0.92229   0.10092
H          H       0.44902   0.84459   0.88186   0.12485
H          H       0.08737   0.11822   0.88349   0.16612
H          H       0.08449   0.12352   0.94339   0.15859
H          H       0.02006   0.09483   0.92942   0.15792
H          H       0.98443   0.74655   0.98824   0.11155
H          H       0.90659   0.69399   0.03528   0.11073
H          H       0.75691   0.72769   0.07682   0.09843
H          H       0.69029   0.81342   0.07176   0.12687
H          H       0.00279   0.95755   0.86293   0.15921
H          H       0.91036   0.00519   0.87762   0.15802
H          H       0.98520   0.99782   0.90783   0.15440
H          H       0.21968   0.15454   0.06362   0.09084
H          H       0.26513   0.16443   0.13227   0.12103
H          H       0.36176   0.01353   0.13590   0.12245
H          H       0.31208   0.01014   0.06695   0.10194
H          H       0.34879   0.13044   0.18356   0.10602
H          H       0.29894   0.08960   0.21446   0.10473
C          C       0.52356   0.18722   0.34718   0.31348
C          C       0.44332   0.19569   0.37929  -0.17470
C          C       0.39066   0.24196   0.38472  -0.07803
C          C       0.41457   0.27931   0.35978  -0.13076
C          C       0.49357   0.27079   0.32833  -0.06906
C          C       0.54718   0.22573   0.32222  -0.22201
C          C       0.41298   0.15827   0.40650   0.44140
C          C       0.46879   0.03740   0.41673   0.51007
C          C       0.44257   0.99706   0.44296  -0.50070
C          C       0.98676   0.69458   0.57254   0.09104
C          C       0.02346   0.73067   0.56564  -0.20802
C          C       0.97491   0.77745   0.56724   0.16059
C          C       0.89050   0.78525   0.57650  -0.19947
C          C       0.85851   0.74722   0.58275   0.10637
C          C       0.01171   0.81780   0.55942  -0.19847
C          C       0.20280   0.09022   0.41347   0.30045
C          C       0.17170   0.05954   0.44851  -0.16876
C          C       0.11844   0.03652   0.44044  -0.08183
C          C       0.09573   0.04300   0.39914  -0.13693
C          C       0.12716   0.07291   0.36442  -0.06157
C          C       0.17985   0.09604   0.37136  -0.22533
C          C       0.19285   0.05038   0.49299   0.44481
C          C       0.29980   0.08558   0.55490   0.50916
C          C       0.32027   0.08065   0.60042  -0.48692
C          C       0.87279   0.97252   0.32899   0.30991
C          C       0.80805   0.99719   0.30945  -0.18234
C          C       0.81925   0.99297   0.26094  -0.07228
C          C       0.89262   0.96676   0.23146  -0.13382
C          C       0.95706   0.94363   0.25057  -0.06229
C          C       0.94728   0.94619   0.29837  -0.22536
C          C       0.73169   0.02864   0.33738   0.43577
C          C       0.63823   0.07260   0.44966   0.50503
C          C       0.56531   0.10807   0.47902  -0.48968
C          C       0.12407   0.91929   0.62417   0.09773
C          C       0.09368   0.88070   0.62942  -0.20037
C          C       0.09277   0.85944   0.58965   0.16028
C          C       0.12382   0.87856   0.54581  -0.19988
C          C       0.15304   0.91724   0.54344   0.09283
C          C       0.06008   0.81762   0.59448  -0.19868
C          C       0.05680   0.31269   0.15301   0.31185
C          C       0.01770   0.30408   0.12067  -0.17401
C          C       0.01706   0.25776   0.11510  -0.07778
C          C       0.05341   0.22045   0.14008  -0.13125
C          C       0.09209   0.22910   0.17167  -0.06840
C          C       0.09403   0.27424   0.17798  -0.22140
C          C       0.97743   0.34144   0.09334   0.44141
C          C       0.92286   0.46235   0.08300   0.50696
C          C       0.88279   0.50275   0.05673  -0.49941
C          C       0.25410   0.80556   0.92752   0.09133
C          C       0.32001   0.76948   0.93438  -0.20541
C          C       0.31985   0.72270   0.93270   0.16062
C          C       0.25248   0.71485   0.92344  -0.19950
C          C       0.18872   0.75285   0.91723   0.10512
C          C       0.38903   0.68232   0.94056  -0.20142
C          C       0.70649   0.40968   0.08666   0.29878
C          C       0.67976   0.44036   0.05162  -0.16644
C          C       0.59544   0.46337   0.05971  -0.08412
C          C       0.53788   0.45687   0.10099  -0.13679
C          C       0.56454   0.42697   0.13569  -0.06190
C          C       0.64724   0.40383   0.12872  -0.22643
C          C       0.73621   0.44951   0.00712   0.44486
C          C       0.94008   0.41370   0.94502   0.50786
C          C       0.00103   0.41909   0.89960  -0.48541
C          C       0.17470   0.52744   0.17105   0.30760
C          C       0.11521   0.50264   0.19045  -0.18100
C          C       0.07358   0.50681   0.23895  -0.07523
C          C       0.09082   0.53317   0.26852  -0.13388
C          C       0.15104   0.55645   0.24952  -0.06361
C          C       0.19194   0.55385   0.20177  -0.22284
C          C       0.09814   0.47121   0.16248   0.43723
C          C       0.16084   0.42740   0.05020   0.50598
C          C       0.15315   0.39187   0.02072  -0.48944
C          C       0.66737   0.58066   0.87594   0.09735
C          C       0.60371   0.61922   0.87063  -0.20143
C          C       0.54181   0.64052   0.91036   0.16094
C          C       0.54800   0.62140   0.95422  -0.19906
C          C       0.61347   0.58275   0.95665   0.09253
C          C       0.47231   0.68239   0.90549  -0.19693
C          C       0.21014   0.34721   0.31261   0.31439
C          C       0.13860   0.37919   0.30381  -0.17240
C          C       0.13278   0.38449   0.25736  -0.07978
C          C       0.19441   0.35957   0.22017  -0.13098
C          C       0.26452   0.32820   0.22910  -0.06681
C          C       0.27250   0.32214   0.27434  -0.22443
C          C       0.07073   0.40655   0.34104   0.43939
C          C       0.00584   0.41714   0.46207   0.50919
C          C       0.93939   0.44345   0.50239  -0.50117
C          C       0.18183   0.57221   0.80532   0.09176
C          C       0.25462   0.56554   0.76924  -0.20602
C          C       0.25288   0.56726   0.72239   0.16287
C          C       0.17630   0.57641   0.71452  -0.20072
C          C       0.10631   0.58240   0.75254   0.10713
C          C       0.32995   0.55947   0.68198  -0.20318
C          C       0.79347   0.41317   0.40984   0.30037
C          C       0.73174   0.44831   0.44030  -0.16941
C          C       0.65542   0.44030   0.46325  -0.08097
C          C       0.63896   0.39909   0.45688  -0.13927
C          C       0.70023   0.36433   0.42710  -0.06162
C          C       0.77617   0.37115   0.40405  -0.22511
C          C       0.74365   0.49283   0.44931   0.44534
C          C       0.88536   0.55496   0.41287   0.51026
C          C       0.90209   0.60009   0.41785  -0.48738
C          C       0.34542   0.32901   0.52762   0.30862
C          C       0.30542   0.30953   0.50284  -0.18167
C          C       0.31266   0.26099   0.50689  -0.07356
C          C       0.35959   0.23149   0.53325  -0.13479
C          C       0.40074   0.25058   0.55652  -0.06319
C          C       0.39364   0.29833   0.55390  -0.22551
C          C       0.25993   0.33749   0.47161   0.43481
C          C       0.21056   0.44980   0.42759   0.50686
C          C       0.17345   0.47899   0.39183  -0.49047
C          C       0.54453   0.62385   0.58038   0.09789
C          C       0.47534   0.62921   0.61885  -0.20209
C          C       0.45283   0.58955   0.64016   0.16164
C          C       0.50280   0.54570   0.62116  -0.19876
C          C       0.57096   0.54322   0.58262   0.09208
C          C       0.37830   0.59446   0.68197  -0.19765
C          C       0.86950   0.15270   0.18739   0.31280
C          C       0.82162   0.12046   0.19597  -0.17392
C          C       0.77458   0.11490   0.24231  -0.07799
C          C       0.77358   0.13983   0.27965  -0.13084
C          C       0.82093   0.17140   0.27101  -0.07003
C          C       0.86818   0.17767   0.22585  -0.22076
C          C       0.81878   0.09313   0.15859   0.44004
C          C       0.88567   0.08264   0.03762   0.50977
C          C       0.88670   0.05612   0.99720  -0.50012
C          C       0.55812   0.92748   0.69510   0.08997
C          C       0.58816   0.93434   0.73111  -0.20690
C          C       0.54136   0.93268   0.77798   0.15925
C          C       0.46612   0.92347   0.78593  -0.19902
C          C       0.44012   0.91730   0.74796   0.10717
C          C       0.57056   0.94049   0.81824  -0.19984
C          C       0.61747   0.08674   0.08926   0.30003
C          C       0.62092   0.05145   0.05910  -0.17011
C          C       0.55884   0.05911   0.03675  -0.08209
C          C       0.49478   0.10030   0.04320  -0.13744
C          C       0.49229   0.13536   0.07238  -0.06134
C          C       0.55257   0.12883   0.09495  -0.22696
C          C       0.68661   0.00707   0.04998   0.44727
C          C       0.85356   0.94480   0.08684   0.50812
C          C       0.91918   0.89926   0.08212  -0.48911
C          C       0.20143   0.17135   0.97258   0.30816
C          C       0.11714   0.19077   0.99725  -0.18190
C          C       0.07995   0.23929   0.99313  -0.07548
C          C       0.12389   0.26877   0.96684  -0.13203
C          C       0.20737   0.24970   0.94360  -0.06293
C          C       0.24532   0.20197   0.94624  -0.22439
C          C       0.06846   0.16284   0.02858   0.43624
C          C       0.08727   0.05062   0.07272   0.50713
C          C       0.04445   0.02100   0.10839  -0.48919
C          C       0.74841   0.87584   0.91935   0.09890
C          C       0.72297   0.87063   0.88086  -0.20348
C          C       0.68226   0.91037   0.85961   0.16048
C          C       0.66962   0.95415   0.87868  -0.20045
C          C       0.69677   0.95649   0.91727   0.09022
C          C       0.65418   0.90561   0.81785  -0.19749
C          C       0.47644   0.81278   0.65282   0.31335
C          C       0.55668   0.80432   0.62071  -0.17466
C          C       0.60934   0.75805   0.61528  -0.07795
C          C       0.58542   0.72069   0.64022  -0.13127
C          C       0.50643   0.72922   0.67167  -0.06887
C          C       0.45281   0.77428   0.67778  -0.22188
C          C       0.58701   0.84173   0.59350   0.44134
C          C       0.53120   0.96260   0.58328   0.51021
C          C       0.55742   0.00294   0.55704  -0.50081
C          C       0.01324   0.30542   0.42746   0.09127
C          C       0.97653   0.26933   0.43436  -0.20805
C          C       0.02509   0.22255   0.43276   0.16056
C          C       0.10950   0.21476   0.42350  -0.19963
C          C       0.14149   0.25278   0.41725   0.10617
C          C       0.98829   0.18220   0.44059  -0.19837
C          C       0.79720   0.90978   0.58654   0.30048
C          C       0.82829   0.94047   0.55149  -0.16875
C          C       0.88155   0.96349   0.55956  -0.08181
C          C       0.90426   0.95701   0.60087  -0.13692
C          C       0.87284   0.92709   0.63558  -0.06149
C          C       0.82015   0.90396   0.62864  -0.22542
C          C       0.80715   0.94962   0.50701   0.44482
C          C       0.70020   0.91443   0.44510   0.50925
C          C       0.67972   0.91935   0.39958  -0.48711
C          C       0.12721   0.02749   0.67101   0.30993
C          C       0.19194   0.00281   0.69055  -0.18282
C          C       0.18075   0.00703   0.73906  -0.07206
C          C       0.10738   0.03325   0.76854  -0.13393
C          C       0.04294   0.05637   0.74943  -0.06228
C          C       0.05272   0.05381   0.70163  -0.22522
C          C       0.26830   0.97136   0.66262   0.43606
C          C       0.36177   0.92740   0.55035   0.50502
C          C       0.43468   0.89193   0.52098  -0.48970
C          C       0.87593   0.08072   0.37583   0.09775
C          C       0.90632   0.11930   0.37058  -0.20024
C          C       0.90722   0.14057   0.41035   0.16037
C          C       0.87618   0.12144   0.45419  -0.19997
C          C       0.84695   0.08277   0.45656   0.09298
C          C       0.93991   0.18239   0.40553  -0.19761
C          C       0.94319   0.68731   0.84699   0.31203
C          C       0.98229   0.69592   0.87933  -0.17409
C          C       0.98294   0.74225   0.88490  -0.07787
C          C       0.94658   0.77955   0.85992  -0.13108
C          C       0.90790   0.77091   0.82833  -0.06813
C          C       0.90596   0.72576   0.82202  -0.22169
C          C       0.02256   0.65856   0.90666   0.44152
C          C       0.07713   0.53766   0.91700   0.50692
C          C       0.11720   0.49726   0.94327  -0.49944
C          C       0.74589   0.19444   0.07248   0.09148
C          C       0.67999   0.23052   0.06562  -0.20556
C          C       0.68015   0.27731   0.06730   0.16095
C          C       0.74751   0.28515   0.07656  -0.19957
C          C       0.81127   0.24715   0.08277   0.10543
C          C       0.61097   0.31768   0.05944  -0.20161
C          C       0.29351   0.59033   0.91334   0.29885
C          C       0.32023   0.55964   0.94838  -0.16658
C          C       0.40455   0.53664   0.94029  -0.08417
C          C       0.46212   0.54313   0.89901  -0.13688
C          C       0.43546   0.57304   0.86432  -0.06158
C          C       0.35275   0.59618   0.87128  -0.22656
C          C       0.26379   0.55050   0.99288   0.44491
C          C       0.05991   0.58630   0.05499   0.50798
C          C      -0.00104   0.58092   0.10040  -0.48480
C          C       0.82529   0.47256   0.82895   0.30751
C          C       0.88479   0.49736   0.80955  -0.18102
C          C       0.92642   0.49320   0.76105  -0.07510
C          C       0.90918   0.46684   0.73148  -0.13404
C          C       0.84896   0.44355   0.75048  -0.06361
C          C       0.80805   0.44615   0.79824  -0.22278
C          C       0.90185   0.52879   0.83753   0.43701
C          C       0.83915   0.57260   0.94981   0.50587
C          C       0.84685   0.60813   0.97928  -0.48939
C          C       0.33262   0.41935   0.12406   0.09713
C          C       0.39629   0.38079   0.12938  -0.20125
C          C       0.45818   0.35948   0.08964   0.16089
C          C       0.45200   0.37860   0.04578  -0.19942
C          C       0.38652   0.41725   0.04335   0.09255
C          C       0.52769   0.31762   0.09451  -0.19674
C          C       0.78985   0.65280   0.68739   0.31437
C          C       0.86139   0.62081   0.69619  -0.17236
C          C       0.86722   0.61551   0.74264  -0.08002
C          C       0.80558   0.64043   0.77983  -0.13080
C          C       0.73547   0.67181   0.77090  -0.06695
C          C       0.72749   0.67786   0.72566  -0.22422
C          C       0.92927   0.59346   0.65896   0.43958
C          C       0.99415   0.58287   0.53793   0.50900
C          C       0.06060   0.55655   0.49761  -0.50111
C          C       0.81817   0.42779   0.19468   0.09183
C          C       0.74537   0.43446   0.23076  -0.20593
C          C       0.74712   0.43274   0.27761   0.16287
C          C       0.82369   0.42359   0.28548  -0.20086
C          C       0.89368   0.41760   0.24746   0.10714
C          C       0.67005   0.44054   0.31802  -0.20319
C          C       0.20653   0.58684   0.59016   0.30033
C          C       0.26826   0.55169   0.55970  -0.16954
C          C       0.34458   0.55970   0.53675  -0.08111
C          C       0.36103   0.60092   0.54312  -0.13934
C          C       0.29976   0.63567   0.57290  -0.06177
C          C       0.22383   0.62886   0.59595  -0.22486
C          C       0.25635   0.50718   0.55069   0.44558
C          C       0.11464   0.44504   0.58713   0.51016
C          C       0.09791   0.39991   0.58216  -0.48758
C          C       0.65458   0.67099   0.47238   0.30872
C          C       0.69458   0.69048   0.49716  -0.18182
C          C       0.68733   0.73902   0.49311  -0.07359
C          C       0.64040   0.76852   0.46675  -0.13460
C          C       0.59926   0.74943   0.44348  -0.06316
C          C       0.60635   0.70168   0.44610  -0.22550
C          C       0.74007   0.66252   0.52839   0.43493
C          C       0.78944   0.55021   0.57241   0.50681
C          C       0.82654   0.52101   0.60817  -0.49036
C          C       0.45547   0.37615   0.41962   0.09756
C          C       0.52465   0.37079   0.38115  -0.20224
C          C       0.54717   0.41046   0.35984   0.16171
C          C       0.49720   0.45430   0.37884  -0.19869
C          C       0.42903   0.45678   0.41738   0.09234
C          C       0.62169   0.40554   0.31803  -0.19766
C          C       0.13049   0.84731   0.81261   0.31279
C          C       0.17838   0.87955   0.80403  -0.17376
C          C       0.22542   0.88510   0.75769  -0.07813
C          C       0.22641   0.86017   0.72035  -0.13084
C          C       0.17907   0.82860   0.72899  -0.07006
C          C       0.13181   0.82233   0.77415  -0.22075
C          C       0.18122   0.90687   0.84141   0.43971
C          C       0.11432   0.91736   0.96239   0.50997
C          C       0.11329   0.94389   0.00280  -0.50000
C          C       0.44187   0.07253   0.30491   0.09013
C          C       0.41183   0.06567   0.26889  -0.20696
C          C       0.45864   0.06732   0.22202   0.15935
C          C       0.53388   0.07653   0.21407  -0.19913
C          C       0.55988   0.08270   0.25204   0.10702
C          C       0.42943   0.05952   0.18176  -0.20024
C          C       0.38252   0.91327   0.91074   0.30006
C          C       0.37908   0.94856   0.94090  -0.17009
C          C       0.44116   0.94090   0.96326  -0.08190
C          C       0.50522   0.89971   0.95680  -0.13750
C          C       0.50770   0.86464   0.92762  -0.06172
C          C       0.44742   0.87118   0.90505  -0.22690
C          C       0.31338   0.99293   0.95002   0.44727
C          C       0.14643   0.05521   0.91316   0.50815
C          C       0.08081   0.10075   0.91788  -0.48919
C          C       0.79857   0.82866   0.02742   0.30801
C          C       0.88285   0.80923   0.00275  -0.18158
C          C       0.92004   0.76071   0.00687  -0.07566
C          C       0.87611   0.73124   0.03316  -0.13212
C          C       0.79263   0.75031   0.05640  -0.06290
C          C       0.75467   0.79803   0.05376  -0.22443
C          C       0.93154   0.83717   0.97142   0.43642
C          C       0.91273   0.94938   0.92728   0.50687
C          C       0.95555   0.97900   0.89161  -0.48907
C          C       0.25158   0.12416   0.08065   0.09882
C          C       0.27702   0.12937   0.11915  -0.20317
C          C       0.31774   0.08963   0.14039   0.16038
C          C       0.33037   0.04585   0.12132  -0.20071
C          C       0.30322   0.04352   0.08273   0.09002
C          C       0.34582   0.09439   0.18215  -0.19722
N          N       0.45901   0.11351   0.39982  -0.30567
N          N       0.42222   0.08083   0.42731  -0.34974
N          N       0.90550   0.70244   0.58058  -0.24960
N          N       0.24351   0.07168   0.50209  -0.31859
N          N       0.25747   0.06002   0.54603  -0.32501
N          N       0.72074   0.03554   0.38303  -0.30414
N          N       0.64905   0.07031   0.40427  -0.33362
N          N       0.15296   0.93764   0.58187  -0.24155
N          N       0.97213   0.38622   0.09997  -0.30400
N          N       0.93047   0.41889   0.07232  -0.34853
N          N       0.18880   0.79762   0.91944  -0.24962
N          N       0.81712   0.42787   0.99789  -0.31890
N          N       0.86350   0.43957   0.95401  -0.32518
N          N       0.13937   0.46446   0.11678  -0.30425
N          N       0.12367   0.42965   0.09553  -0.33396
N          N       0.67228   0.56235   0.91825  -0.24040
N          N       0.07219   0.40021   0.38588  -0.30462
N          N       0.00301   0.42789   0.41853  -0.34778
N          N       0.10849   0.58014   0.79739  -0.25027
N          N       0.81536   0.50207   0.42765  -0.31799
N          N       0.81798   0.54598   0.43916  -0.32684
N          N       0.25517   0.38325   0.46505  -0.30330
N          N       0.21826   0.40454   0.43023  -0.33354
N          N       0.59160   0.58156   0.56217  -0.23976
N          N       0.85847   0.09971   0.11379  -0.30333
N          N       0.85021   0.07178   0.08112  -0.34930
N          N       0.48486   0.91946   0.70307  -0.25015
N          N       0.74551   0.99774   0.07197  -0.32026
N          N       0.80338   0.95380   0.06060  -0.32468
N          N       0.10291   0.11714   0.03536  -0.30618
N          N       0.05248   0.09590   0.07030  -0.33285
N          N       0.73522   0.91807   0.93766  -0.24164
N          N       0.54099   0.88649   0.60018  -0.30535
N          N       0.57777   0.91917   0.57269  -0.35013
N          N       0.09450   0.29756   0.41942  -0.24948
N          N       0.75649   0.92832   0.49791  -0.31881
N          N       0.74253   0.93998   0.45397  -0.32483
N          N       0.27925   0.96447   0.61697  -0.30401
N          N       0.35095   0.92969   0.59573  -0.33401
N          N       0.84703   0.06236   0.41813  -0.24180
N          N       0.02787   0.61378   0.90003  -0.30397
N          N       0.06953   0.58111   0.92768  -0.34866
N          N       0.81120   0.20238   0.08056  -0.24997
N          N       0.18288   0.57214   0.00211  -0.31869
N          N       0.13649   0.56044   0.04599  -0.32551
N          N       0.86062   0.53554   0.88322  -0.30433
N          N       0.87633   0.57035   0.90447  -0.33367
N          N       0.32772   0.43765   0.08175  -0.24010
N          N       0.92780   0.59980   0.61412  -0.30443
N          N       0.99699   0.57212   0.58147  -0.34813
N          N       0.89151   0.41987   0.20261  -0.25038
N          N       0.18463   0.49793   0.57236  -0.31797
N          N       0.18201   0.45403   0.56084  -0.32701
N          N       0.74482   0.61676   0.53495  -0.30333
N          N       0.78173   0.59547   0.56977  -0.33336
N          N       0.40839   0.41844   0.43783  -0.23962
N          N       0.14153   0.90029   0.88621  -0.30332
N          N       0.14978   0.92822   0.91889  -0.34921
N          N       0.51513   0.08054   0.29693  -0.25001
N          N       0.25448   0.00227   0.92804  -0.32064
N          N       0.19661   0.04620   0.93940  -0.32424
N          N       0.89709   0.88286   0.96464  -0.30615
N          N       0.94752   0.90410   0.92970  -0.33304
N          N       0.26477   0.08193   0.06234  -0.24154
O          O       0.57890   0.14532   0.33888  -0.48203
O          O       0.34071   0.16839   0.43697  -0.45979
O          O       0.53847   0.02865   0.38408  -0.48831
O          O       0.25102   0.11519   0.41802  -0.50125
O          O       0.16311   0.02173   0.52288  -0.46464
O          O       0.32461   0.11654   0.52419  -0.50789
O          O       0.86822   0.97268   0.37441  -0.48520
O          O       0.67545   0.05090   0.31761  -0.46194
O          O       0.69003   0.04447   0.47030  -0.50551
O          O       0.06125   0.35473   0.16151  -0.48057
O          O       0.94620   0.33106   0.06271  -0.46090
O          O       0.95089   0.47120   0.11577  -0.48782
O          O       0.78427   0.38483   0.08217  -0.50079
O          O       0.70788   0.47836   0.97730  -0.46447
O          O       0.96492   0.38212   0.97536  -0.50757
O          O       0.21587   0.52733   0.12566  -0.48637
O          O       0.04453   0.44885   0.18226  -0.46348
O          O       0.20511   0.45564   0.02977  -0.50624
O          O       0.22335   0.33924   0.35464  -0.48264
O          O       0.00859   0.43690   0.33064  -0.45888
O          O       0.06637   0.38422   0.47099  -0.48900
O          O       0.86698   0.41744   0.38509  -0.50070
O          O       0.68539   0.52254   0.47813  -0.46436
O          O       0.93997   0.52450   0.38131  -0.50766
O          O       0.34088   0.37443   0.52767  -0.48597
O          O       0.22626   0.31749   0.44934  -0.46347
O          O       0.23479   0.47035   0.45554  -0.50755
O          O       0.91663   0.16087   0.14543  -0.48143
O          O       0.77711   0.06253   0.16871  -0.45991
O          O       0.92136   0.11594   0.02877  -0.48921
O          O       0.67083   0.08251   0.11375  -0.50025
O          O       0.68737   0.97750   0.02082  -0.46519
O          O       0.84698   0.97527   0.11819  -0.50723
O          O       0.24247   0.12599   0.97255  -0.48752
O          O       0.99247   0.18279   0.05072  -0.46321
O          O       0.15975   0.03027   0.04452  -0.50686
O          O       0.42110   0.85469   0.66112  -0.48166
O          O       0.65928   0.83161   0.56303  -0.46021
O          O       0.46153   0.97135   0.61592  -0.48779
O          O       0.74897   0.88481   0.58198  -0.50131
O          O       0.83689   0.97828   0.47712  -0.46462
O          O       0.67538   0.88347   0.47581  -0.50810
O          O       0.13178   0.02732   0.62559  -0.48491
O          O       0.32454   0.94911   0.68240  -0.46203
O          O       0.30997   0.95553   0.52970  -0.50544
O          O       0.93874   0.64527   0.83849  -0.48062
O          O       0.05379   0.66894   0.93729  -0.46076
O          O       0.04910   0.52880   0.88423  -0.48812
O          O       0.21572   0.61518   0.91783  -0.50062
O          O       0.29211   0.52164   0.02270  -0.46474
O          O       0.03508   0.61788   0.02465  -0.50722
O          O       0.78413   0.47267   0.87435  -0.48636
O          O       0.95546   0.55116   0.81774  -0.46338
O          O       0.79488   0.54436   0.97023  -0.50610
O          O       0.77664   0.66077   0.64536  -0.48234
O          O       0.99141   0.56310   0.66936  -0.45925
O          O       0.93362   0.61578   0.52902  -0.48862
O          O       0.13302   0.58256   0.61491  -0.50038
O          O       0.31461   0.47746   0.52187  -0.46471
O          O       0.06003   0.47550   0.61869  -0.50747
O          O       0.65912   0.62557   0.47233  -0.48622
O          O       0.77373   0.68252   0.55066  -0.46329
O          O       0.76520   0.52965   0.54447  -0.50792
O          O       0.08337   0.83913   0.85457  -0.48152
O          O       0.22289   0.93747   0.83129  -0.45975
O          O       0.07864   0.88406   0.97123  -0.48944
O          O       0.32917   0.91749   0.88625  -0.50045
O          O       0.31262   0.02250   0.97918  -0.46510
O          O       0.15302   0.02473   0.88181  -0.50727
O          O       0.75753   0.87401   0.02745  -0.48717
O          O       0.00752   0.81721   0.94928  -0.46375
O          O       0.84025   0.96974   0.95548  -0.50635

