data_crystal

_audit_creation_method 'AiiDA-DDEC plugin'

_cell_length_a        17.36406
_cell_length_b        30.09277
_cell_length_c        30.08998

_cell_angle_alpha     85.28115
_cell_angle_beta     73.28532
_cell_angle_gamma     73.29587

_symmetry_space_group_name_Hall 'P 1'
_symmetry_space_group_name_H-M  'P 1'

loop_
_symmetry_equiv_pos_as_xyz
 'x,y,z'

loop_
_atom_site_label
_atom_site_type_symbol
_atom_site_fract_x
_atom_site_fract_y
_atom_site_fract_z
_atom_site_charge
Mn         Mn      0.39937   0.88595   0.96168   1.00911
Mn         Mn      0.21277   0.99879   0.07952   0.97345
Mn         Mn      0.64353   0.91686   0.85628   0.98247
Mn         Mn      0.24701   0.61380   0.53836   1.00897
Mn         Mn      0.29170   0.50096   0.42073   0.97294
Mn         Mn      0.41646   0.58325   0.64387   0.98262
Mn         Mn      0.78545   0.96161   0.61440   1.00889
Mn         Mn      0.71252   0.07905   0.50113   0.97352
Mn         Mn      0.06068   0.85615   0.58322   0.98231
Mn         Mn      0.36127   0.53760   0.88599   1.00912
Mn         Mn      0.29267   0.42006   0.99888   0.97393
Mn         Mn      0.49941   0.64366   0.91694   0.98236
Mn         Mn      0.60062   0.11405   0.03832   1.00890
Mn         Mn      0.78723   0.00121   0.92049   0.97334
Mn         Mn      0.35646   0.08314   0.14372   0.98230
Mn         Mn      0.75298   0.38620   0.46164   1.00887
Mn         Mn      0.70829   0.49904   0.57927   0.97323
Mn         Mn      0.58353   0.41675   0.35614   0.98258
Mn         Mn      0.21455   0.03839   0.38561   1.00876
Mn         Mn      0.28747   0.92095   0.49888   0.97367
Mn         Mn      0.93931   0.14385   0.41678   0.98222
Mn         Mn      0.63873   0.46240   0.11402   1.00905
Mn         Mn      0.70732   0.57994   0.00112   0.97404
Mn         Mn      0.50058   0.35634   0.08306   0.98222
H          H       0.28443   0.89910   0.84674   0.12049
H          H       0.14254   0.94481   0.84164   0.09665
H          H       0.03945   0.98993   0.91022   0.11904
H          H       0.08295   0.99058   0.98248   0.11286
H          H       0.37696   0.94837   0.10878   0.11756
H          H       0.48036   0.92740   0.07324   0.11121
H          H       0.46553   0.88102   0.14411   0.09034
H          H       0.47956   0.84559   0.09707   0.08073
H          H       0.31127   0.89096   0.16672   0.08407
H          H       0.32144   0.85909   0.11827   0.08622
H          H       0.41136   0.78859   0.14844   0.07886
H          H       0.40222   0.82021   0.19693   0.07488
H          H       0.24450   0.83294   0.22093   0.11169
H          H       0.29905   0.77301   0.21751   0.10745
H          H       0.25465   0.79994   0.17251   0.11337
H          H       0.07791   0.92418   0.19226   0.12775
H          H       0.06239   0.92363   0.27724   0.09792
H          H       0.13508   0.96969   0.30908   0.11128
H          H       0.22209   0.01405   0.25501   0.11084
H          H       0.37740   0.08207   0.98928   0.10792
H          H       0.37461   0.11161   0.03848   0.11663
H          H       0.29739   0.16185   0.98410   0.08343
H          H       0.22661   0.12764   0.99666   0.07617
H          H       0.25568   0.18397   0.06807   0.08645
H          H       0.18619   0.14958   0.08171   0.08356
H          H       0.17427   0.23426   0.01699   0.07793
H          H       0.10627   0.19884   0.02806   0.06352
H          H       0.06271   0.21865   0.11412   0.11027
H          H       0.04090   0.26903   0.07979   0.10182
H          H       0.12927   0.25542   0.10214   0.11603
H          H       0.12068   0.06397   0.01443   0.08740
H          H       0.01648   0.14122   0.01449   0.11943
H          H       0.95479   0.13830   0.16411   0.11584
H          H       0.06267   0.06188   0.15774   0.09168
H          H       0.89145   0.20835   0.12464   0.10434
H          H       0.93324   0.21485   0.06425   0.10353
H          H       0.82311   0.78722   0.79953   0.12555
H          H       0.80950   0.70638   0.80853   0.09196
H          H       0.68114   0.69022   0.86391   0.11398
H          H       0.56943   0.75501   0.90732   0.10453
H          H       0.37649   0.99356   0.96212   0.11850
H          H       0.43431   0.03256   0.93390   0.11031
H          H       0.39319   0.02694   0.86119   0.08936
H          H       0.33458   0.98869   0.88964   0.07706
H          H       0.30245   0.08909   0.91960   0.08205
H          H       0.24769   0.05050   0.95025   0.08861
H          H       0.25350   0.08276   0.84992   0.07686
H          H       0.19961   0.04321   0.87992   0.07531
H          H       0.10603   0.10384   0.93897   0.10869
H          H       0.16235   0.14405   0.91221   0.11227
H          H       0.10250   0.12508   0.88272   0.11458
H          H       0.68972   0.33917   0.08183   0.08939
H          H       0.81835   0.27623   0.08064   0.11394
H          H       0.67404   0.17835   0.09017   0.12740
H          H       0.55143   0.24562   0.08996   0.09399
H          H       0.81483   0.15395   0.10703   0.10368
H          H       0.85231   0.16389   0.04810   0.11496
H          H       0.02925   0.60180   0.65298   0.12111
H          H       0.92823   0.55575   0.65827   0.09716
H          H       0.94040   0.50921   0.59024   0.11872
H          H       0.05714   0.50807   0.51827   0.11201
H          H       0.43308   0.55160   0.39130   0.11726
H          H       0.48061   0.57219   0.42687   0.11075
H          H       0.49026   0.61875   0.35604   0.09100
H          H       0.42215   0.65423   0.40307   0.08109
H          H       0.36838   0.60889   0.33338   0.08455
H          H       0.29849   0.64069   0.38185   0.08697
H          H       0.34832   0.71118   0.35188   0.07901
H          H       0.41917   0.67964   0.30337   0.07493
H          H       0.29814   0.66704   0.27911   0.11085
H          H       0.28982   0.72692   0.28259   0.10572
H          H       0.22706   0.70007   0.32749   0.11289
H          H       0.19450   0.57547   0.30840   0.12891
H          H       0.26266   0.57628   0.22340   0.09808
H          H       0.41288   0.53056   0.19120   0.11032
H          H       0.49080   0.48593   0.24486   0.11138
H          H       0.45019   0.41750   0.51048   0.10856
H          H       0.52559   0.38805   0.46121   0.11676
H          H       0.44506   0.33745   0.51569   0.08267
H          H       0.35243   0.37169   0.50360   0.07613
H          H       0.50834   0.31542   0.43185   0.08718
H          H       0.41828   0.35002   0.41829   0.08395
H          H       0.42591   0.26520   0.48276   0.07759
H          H       0.33369   0.30080   0.47182   0.06357
H          H       0.39559   0.28132   0.38565   0.11056
H          H       0.38905   0.23094   0.41980   0.10202
H          H       0.48651   0.24418   0.39761   0.11561
H          H       0.19988   0.43565   0.48551   0.08753
H          H       0.17311   0.35835   0.48532   0.11979
H          H       0.25723   0.36159   0.33569   0.11658
H          H       0.28246   0.43800   0.34221   0.09130
H          H       0.22439   0.29134   0.37514   0.10482
H          H       0.21276   0.28479   0.43552   0.10397
H          H       0.40972   0.71300   0.70050   0.12603
H          H       0.32419   0.79377   0.69150   0.09202
H          H       0.23503   0.80977   0.63608   0.11474
H          H       0.23167   0.74494   0.59254   0.10453
H          H       0.33287   0.50593   0.53767   0.11872
H          H       0.40122   0.46720   0.56625   0.11094
H          H       0.28167   0.47299   0.63872   0.08932
H          H       0.21358   0.51122   0.61013   0.07773
H          H       0.31107   0.41075   0.58037   0.08170
H          H       0.24852   0.44932   0.54966   0.08772
H          H       0.18633   0.41716   0.64999   0.07721
H          H       0.12300   0.45671   0.61997   0.07552
H          H       0.14879   0.39608   0.56089   0.10768
H          H       0.21839   0.35587   0.58769   0.11139
H          H       0.11027   0.37481   0.61710   0.11462
H          H       0.11025   0.16080   0.41791   0.08977
H          H       0.17490   0.22365   0.41936   0.11403
H          H       0.94259   0.32167   0.40999   0.12673
H          H       0.88688   0.25444   0.40990   0.09485
H          H       0.07617   0.34594   0.39299   0.10357
H          H       0.06512   0.33594   0.45190   0.11505
H          H       0.68321   0.84671   0.60206   0.12139
H          H       0.58753   0.84102   0.55593   0.09656
H          H       0.53009   0.90933   0.51027   0.11901
H          H       0.57516   0.98137   0.50890   0.11261
H          H       0.82506   0.10862   0.55163   0.11825
H          H       0.90760   0.07308   0.57255   0.11206
H          H       0.84629   0.14398   0.61909   0.09124
H          H       0.82488   0.09691   0.65443   0.08188
H          H       0.70209   0.16642   0.60884   0.08405
H          H       0.68048   0.11802   0.64072   0.08715
H          H       0.70009   0.14825   0.71123   0.07930
H          H       0.72265   0.19667   0.67960   0.07528
H          H       0.57758   0.22084   0.66694   0.11119
H          H       0.57250   0.21744   0.72686   0.10719
H          H       0.55465   0.17250   0.69996   0.11290
H          H       0.50255   0.19131   0.57564   0.12872
H          H       0.48567   0.27631   0.57639   0.09730
H          H       0.60396   0.30856   0.53088   0.11016
H          H       0.73566   0.25481   0.48635   0.11249
H          H       0.95982   0.98959   0.41780   0.10841
H          H       0.98682   0.03865   0.38803   0.11669
H          H       0.95998   0.98415   0.33761   0.08311
H          H       0.85530   0.99650   0.37208   0.07697
H          H       0.93996   0.06804   0.31555   0.08650
H          H       0.83635   0.08162   0.35015   0.08355
H          H       0.90843   0.01704   0.26530   0.07823
H          H       0.80520   0.02806   0.30086   0.06373
H          H       0.78127   0.11415   0.28133   0.11128
H          H       0.80922   0.07995   0.23089   0.10121
H          H       0.88430   0.10220   0.24437   0.11555
H          H       0.68521   0.01408   0.43570   0.08821
H          H       0.65796   0.01444   0.35842   0.11925
H          H       0.59323   0.16403   0.36204   0.11630
H          H       0.62512   0.15733   0.43845   0.09129
H          H       0.59958   0.12485   0.29182   0.10455
H          H       0.64804   0.06447   0.28498   0.10358
H          H       0.11137   0.79935   0.71272   0.12573
H          H       0.01729   0.80810   0.79356   0.09163
H          H       0.87269   0.86328   0.80993   0.11410
H          H       0.82530   0.90689   0.74527   0.10537
H          H       0.86991   0.96209   0.50649   0.11868
H          H       0.96680   0.93382   0.46765   0.11041
H          H       0.92014   0.86115   0.47307   0.08981
H          H       0.82334   0.88955   0.51129   0.07770
H          H       0.89153   0.91961   0.41101   0.08067
H          H       0.79827   0.95024   0.44957   0.08799
H          H       0.83634   0.84997   0.41713   0.07709
H          H       0.74299   0.87990   0.45670   0.07591
H          H       0.70977   0.93894   0.39614   0.10891
H          H       0.80619   0.91223   0.35589   0.11248
H          H       0.72752   0.88271   0.37482   0.11503
H          H       0.52876   0.08184   0.16080   0.08941
H          H       0.59450   0.08057   0.22382   0.11389
H          H       0.35259   0.08999   0.32158   0.12668
H          H       0.29718   0.08979   0.25424   0.09506
H          H       0.46892   0.10714   0.34600   0.10361
H          H       0.51640   0.04819   0.33617   0.11517
H          H       0.13237   0.65226   0.89844   0.12098
H          H       0.98531   0.65804   0.94472   0.09728
H          H       0.95014   0.58978   0.99027   0.11944
H          H       0.06525   0.51745   0.99127   0.11205
H          H       0.48515   0.39080   0.94846   0.11849
H          H       0.55326   0.42638   0.92818   0.11205
H          H       0.60942   0.35571   0.88125   0.09031
H          H       0.57675   0.40280   0.84587   0.08107
H          H       0.47757   0.33328   0.89114   0.08447
H          H       0.43950   0.38178   0.85939   0.08741
H          H       0.55945   0.35180   0.78886   0.07903
H          H       0.59891   0.30329   0.82032   0.07522
H          H       0.46530   0.27906   0.83293   0.11153
H          H       0.51664   0.28250   0.77303   0.10625
H          H       0.42715   0.32742   0.79992   0.11349
H          H       0.27041   0.30725   0.92442   0.12877
H          H       0.34001   0.22236   0.92362   0.09757
H          H       0.44458   0.19054   0.96950   0.11021
H          H       0.47733   0.24454   0.01419   0.11279
H          H       0.36642   0.51059   0.08183   0.10874
H          H       0.41322   0.46170   0.11157   0.11753
H          H       0.28165   0.51595   0.16209   0.08239
H          H       0.22362   0.50345   0.12772   0.07634
H          H       0.32357   0.43202   0.18422   0.08757
H          H       0.26787   0.41841   0.14968   0.08385
H          H       0.19112   0.48299   0.23457   0.07725
H          H       0.13429   0.47190   0.19906   0.06382
H          H       0.17698   0.38580   0.21861   0.11095
H          H       0.12046   0.42004   0.26901   0.10217
H          H       0.23113   0.39788   0.25559   0.11592
H          H       0.13502   0.48526   0.06385   0.08795
H          H       0.03119   0.48535   0.14123   0.12018
H          H       0.11862   0.33574   0.13846   0.11621
H          H       0.21992   0.34199   0.06191   0.09093
H          H       0.01615   0.37535   0.20861   0.10505
H          H       0.99784   0.43574   0.21509   0.10454
H          H       0.62236   0.70026   0.78741   0.12587
H          H       0.61820   0.69112   0.70650   0.09194
H          H       0.54450   0.63612   0.69026   0.11390
H          H       0.47584   0.59274   0.75492   0.10408
H          H       0.33827   0.53768   0.99440   0.11950
H          H       0.36802   0.56656   0.03292   0.10993
H          H       0.25466   0.63891   0.02696   0.08969
H          H       0.22460   0.61035   0.98866   0.07841
H          H       0.22188   0.58060   0.08912   0.08114
H          H       0.19789   0.54987   0.05046   0.08761
H          H       0.10330   0.65015   0.08281   0.07695
H          H       0.07957   0.62006   0.04318   0.07642
H          H       0.04529   0.56090   0.10368   0.10806
H          H       0.07474   0.58772   0.14396   0.11232
H          H       0.98534   0.61704   0.12512   0.11487
H          H       0.77115   0.41843   0.33928   0.08990
H          H       0.89875   0.41963   0.27651   0.11339
H          H       0.76442   0.41027   0.17828   0.12748
H          H       0.64148   0.41035   0.24540   0.09402
H          H       0.92221   0.39279   0.15422   0.10302
H          H       0.90118   0.45174   0.16385   0.11485
H          H       0.71556   0.10090   0.15327   0.12078
H          H       0.85745   0.05519   0.15837   0.09681
H          H       0.96054   0.01007   0.08978   0.11897
H          H       0.91704   0.00942   0.01752   0.11256
H          H       0.62303   0.05163   0.89123   0.11753
H          H       0.51963   0.07260   0.92677   0.11150
H          H       0.53446   0.11898   0.85589   0.09026
H          H       0.52044   0.15441   0.90293   0.08098
H          H       0.68872   0.10904   0.83329   0.08384
H          H       0.67855   0.14091   0.88173   0.08627
H          H       0.58864   0.21141   0.85156   0.07902
H          H       0.59777   0.17979   0.80308   0.07473
H          H       0.75550   0.16706   0.77907   0.11145
H          H       0.70094   0.22699   0.78249   0.10702
H          H       0.74535   0.20006   0.82749   0.11337
H          H       0.92209   0.07582   0.80775   0.12775
H          H       0.93761   0.07637   0.72276   0.09765
H          H       0.86491   0.03031   0.69092   0.11102
H          H       0.77790   0.98595   0.74500   0.11077
H          H       0.62260   0.91793   0.01072   0.10817
H          H       0.62539   0.88839   0.96153   0.11660
H          H       0.70261   0.83815   0.01590   0.08370
H          H       0.77339   0.87236   0.00334   0.07611
H          H       0.74432   0.81603   0.93193   0.08654
H          H       0.81380   0.85042   0.91829   0.08329
H          H       0.82572   0.76574   0.98301   0.07821
H          H       0.89372   0.80116   0.97195   0.06348
H          H       0.93728   0.78135   0.88588   0.11002
H          H       0.95910   0.73097   0.92022   0.10176
H          H       0.87072   0.74458   0.89786   0.11601
H          H       0.87932   0.93603   0.98557   0.08769
H          H       0.98351   0.85878   0.98552   0.11969
H          H       0.04521   0.86170   0.83590   0.11555
H          H       0.93732   0.93812   0.84226   0.09150
H          H       0.10854   0.79165   0.87536   0.10415
H          H       0.06675   0.78515   0.93576   0.10373
H          H       0.17688   0.21278   0.20047   0.12583
H          H       0.19049   0.29362   0.19148   0.09207
H          H       0.31886   0.30978   0.13609   0.11386
H          H       0.43056   0.24499   0.09268   0.10424
H          H       0.62351   0.00644   0.03788   0.11818
H          H       0.56568   0.96744   0.06611   0.11048
H          H       0.60681   0.97306   0.13882   0.08954
H          H       0.66542   0.01131   0.11036   0.07695
H          H       0.69755   0.91091   0.08040   0.08216
H          H       0.75231   0.94950   0.04975   0.08835
H          H       0.74649   0.91724   0.15008   0.07714
H          H       0.80038   0.95679   0.12009   0.07523
H          H       0.89396   0.89616   0.06103   0.10835
H          H       0.83765   0.85595   0.08779   0.11230
H          H       0.89749   0.87492   0.11728   0.11457
H          H       0.31028   0.66083   0.91817   0.08947
H          H       0.18164   0.72377   0.91936   0.11408
H          H       0.32596   0.82165   0.90984   0.12728
H          H       0.44857   0.75438   0.91005   0.09384
H          H       0.18516   0.84605   0.89297   0.10350
H          H       0.14768   0.83610   0.95190   0.11515
H          H       0.97075   0.39820   0.34703   0.12094
H          H       0.07177   0.44425   0.34173   0.09683
H          H       0.05960   0.49079   0.40976   0.11860
H          H       0.94286   0.49193   0.48174   0.11217
H          H       0.56691   0.44840   0.60871   0.11740
H          H       0.51939   0.42781   0.57314   0.11074
H          H       0.50974   0.38125   0.64396   0.09121
H          H       0.57784   0.34577   0.59694   0.08092
H          H       0.63161   0.39111   0.66663   0.08468
H          H       0.70150   0.35931   0.61816   0.08665
H          H       0.65168   0.28882   0.64813   0.07882
H          H       0.58083   0.32036   0.69663   0.07527
H          H       0.70186   0.33296   0.72089   0.11103
H          H       0.71017   0.27308   0.71742   0.10603
H          H       0.77293   0.29993   0.67252   0.11260
H          H       0.80549   0.42453   0.69161   0.12868
H          H       0.73734   0.42372   0.77661   0.09811
H          H       0.58711   0.46944   0.80880   0.11051
H          H       0.50919   0.51407   0.75514   0.11144
H          H       0.54981   0.58250   0.48953   0.10841
H          H       0.47441   0.61195   0.53879   0.11693
H          H       0.55494   0.66255   0.48431   0.08249
H          H       0.64757   0.62831   0.49641   0.07587
H          H       0.49165   0.68458   0.56815   0.08729
H          H       0.58172   0.64998   0.58172   0.08405
H          H       0.57408   0.73480   0.51724   0.07743
H          H       0.66630   0.69920   0.52818   0.06330
H          H       0.60441   0.71868   0.61435   0.11063
H          H       0.61095   0.76906   0.58020   0.10181
H          H       0.51349   0.75582   0.60240   0.11578
H          H       0.80012   0.56435   0.51449   0.08732
H          H       0.82689   0.64165   0.51468   0.11945
H          H       0.74277   0.63841   0.66432   0.11692
H          H       0.71753   0.56200   0.65780   0.09154
H          H       0.77561   0.70866   0.62486   0.10519
H          H       0.78723   0.71521   0.56448   0.10386
H          H       0.59028   0.28700   0.29951   0.12594
H          H       0.67580   0.20623   0.30850   0.09194
H          H       0.76496   0.19023   0.36392   0.11475
H          H       0.76832   0.25506   0.40747   0.10454
H          H       0.66712   0.49407   0.46233   0.11894
H          H       0.59877   0.53280   0.43375   0.11112
H          H       0.71833   0.52701   0.36129   0.08915
H          H       0.78642   0.48878   0.38988   0.07759
H          H       0.68892   0.58925   0.41964   0.08190
H          H       0.75147   0.55068   0.45035   0.08790
H          H       0.81366   0.58284   0.35001   0.07711
H          H       0.87699   0.54329   0.38003   0.07539
H          H       0.85121   0.60392   0.43911   0.10787
H          H       0.78160   0.64413   0.41231   0.11145
H          H       0.88973   0.62519   0.38291   0.11423
H          H       0.88974   0.83920   0.58210   0.08974
H          H       0.82509   0.77635   0.58064   0.11418
H          H       0.05741   0.67833   0.59001   0.12668
H          H       0.11312   0.74556   0.59011   0.09479
H          H       0.92383   0.65406   0.60701   0.10373
H          H       0.93487   0.66406   0.54810   0.11476
H          H       0.31679   0.15329   0.39795   0.12135
H          H       0.41246   0.15898   0.44407   0.09652
H          H       0.46990   0.09067   0.48974   0.11904
H          H       0.42483   0.01863   0.49111   0.11266
H          H       0.17494   0.89138   0.44837   0.11840
H          H       0.09239   0.92692   0.42745   0.11226
H          H       0.15370   0.85602   0.38091   0.09136
H          H       0.17511   0.90309   0.34557   0.08169
H          H       0.29790   0.83358   0.39116   0.08424
H          H       0.31952   0.88198   0.35928   0.08709
H          H       0.29991   0.85175   0.28878   0.07906
H          H       0.27734   0.80333   0.32040   0.07538
H          H       0.42241   0.77916   0.33307   0.11140
H          H       0.42749   0.78256   0.27314   0.10704
H          H       0.44535   0.82750   0.30005   0.11279
H          H       0.49745   0.80869   0.42436   0.12840
H          H       0.51432   0.72369   0.42361   0.09711
H          H       0.39604   0.69144   0.46912   0.11018
H          H       0.26434   0.74519   0.51365   0.11275
H          H       0.04018   0.01041   0.58221   0.10830
H          H       0.01318   0.96134   0.61197   0.11698
H          H       0.04001   0.01585   0.66240   0.08338
H          H       0.14469   0.00350   0.62793   0.07672
H          H       0.06004   0.93196   0.68445   0.08671
H          H       0.16366   0.91838   0.64985   0.08333
H          H       0.09157   0.98296   0.73470   0.07838
H          H       0.19479   0.97194   0.69915   0.06350
H          H       0.21873   0.88585   0.71867   0.11092
H          H       0.19078   0.92005   0.76911   0.10123
H          H       0.11571   0.89779   0.75563   0.11570
H          H       0.31479   0.98592   0.56430   0.08816
H          H       0.34203   0.98556   0.64158   0.11938
H          H       0.40676   0.83597   0.63796   0.11631
H          H       0.37488   0.84267   0.56156   0.09112
H          H       0.40041   0.87515   0.70818   0.10471
H          H       0.35195   0.93553   0.71502   0.10375
H          H       0.88862   0.20065   0.28729   0.12583
H          H       0.98270   0.19190   0.20644   0.09144
H          H       0.12731   0.13672   0.19007   0.11388
H          H       0.17470   0.09311   0.25474   0.10526
H          H       0.13008   0.03791   0.49351   0.11857
H          H       0.03319   0.06618   0.53235   0.11076
H          H       0.07985   0.13885   0.52694   0.08988
H          H       0.17665   0.11045   0.48871   0.07740
H          H       0.10847   0.08039   0.58900   0.08092
H          H       0.20173   0.04976   0.55043   0.08788
H          H       0.16365   0.15003   0.58288   0.07723
H          H       0.25701   0.12010   0.54330   0.07561
H          H       0.29023   0.06106   0.60387   0.10876
H          H       0.19381   0.08777   0.64411   0.11286
H          H       0.27247   0.11729   0.62519   0.11501
H          H       0.47123   0.91816   0.83920   0.08974
H          H       0.40550   0.91943   0.77619   0.11405
H          H       0.64740   0.91001   0.67843   0.12627
H          H       0.70281   0.91021   0.74577   0.09494
H          H       0.53108   0.89286   0.65401   0.10344
H          H       0.48359   0.95181   0.66384   0.11506
H          H       0.86763   0.34774   0.10156   0.12115
H          H       0.01468   0.34195   0.05528   0.09723
H          H       0.04985   0.41021   0.00973   0.11918
H          H       0.93474   0.48255   0.00873   0.11197
H          H       0.51484   0.60920   0.05154   0.11832
H          H       0.44674   0.57362   0.07182   0.11217
H          H       0.39058   0.64429   0.11876   0.09041
H          H       0.42325   0.59720   0.15413   0.08130
H          H       0.52243   0.66672   0.10887   0.08423
H          H       0.56049   0.61822   0.14061   0.08725
H          H       0.44055   0.64820   0.21114   0.07928
H          H       0.40109   0.69671   0.17968   0.07524
H          H       0.53469   0.72094   0.16708   0.11131
H          H       0.48335   0.71750   0.22698   0.10650
H          H       0.57284   0.67258   0.20009   0.11342
H          H       0.72958   0.69275   0.07558   0.12880
H          H       0.65998   0.77764   0.07639   0.09760
H          H       0.55542   0.80946   0.03051   0.11011
H          H       0.52267   0.75546   0.98581   0.11274
H          H       0.63358   0.48941   0.91817   0.10892
H          H       0.58677   0.53830   0.88843   0.11769
H          H       0.71834   0.48405   0.83792   0.08230
H          H       0.77638   0.49655   0.87228   0.07636
H          H       0.67643   0.56798   0.81578   0.08768
H          H       0.73212   0.58159   0.85032   0.08397
H          H       0.80888   0.51700   0.76543   0.07720
H          H       0.86571   0.52810   0.80094   0.06378
H          H       0.82301   0.61420   0.78139   0.11106
H          H       0.87954   0.57996   0.73099   0.10190
H          H       0.76887   0.60211   0.74441   0.11598
H          H       0.86498   0.51474   0.93615   0.08806
H          H       0.96881   0.51465   0.85878   0.12007
H          H       0.88137   0.66426   0.86154   0.11609
H          H       0.78008   0.65801   0.93809   0.09113
H          H       0.98384   0.62465   0.79139   0.10490
H          H       0.00216   0.56426   0.78492   0.10438
H          H       0.37763   0.29974   0.21259   0.12593
H          H       0.38180   0.30888   0.29350   0.09232
H          H       0.45549   0.36388   0.30974   0.11412
H          H       0.52415   0.40726   0.24508   0.10408
H          H       0.66172   0.46232   0.00561   0.11950
H          H       0.63198   0.43344   0.96708   0.10981
H          H       0.74534   0.36109   0.97304   0.08969
H          H       0.77540   0.38965   0.01135   0.07850
H          H       0.77811   0.41940   0.91088   0.08103
H          H       0.80210   0.45013   0.94954   0.08758
H          H       0.89669   0.34985   0.91720   0.07694
H          H       0.92042   0.37994   0.95682   0.07653
H          H       0.95470   0.43910   0.89632   0.10806
H          H       0.92525   0.41228   0.85605   0.11225
H          H       0.01466   0.38296   0.87489   0.11472
H          H       0.22884   0.58157   0.66073   0.08986
H          H       0.10124   0.58037   0.72349   0.11345
H          H       0.23558   0.58973   0.82172   0.12768
H          H       0.35851   0.58965   0.75461   0.09386
H          H       0.07778   0.60721   0.84578   0.10315
H          H       0.09881   0.54826   0.83616   0.11500
C          C       0.26349   0.91791   0.91741   0.30293
C          C       0.23917   0.91926   0.87620  -0.22768
C          C       0.15984   0.94491   0.87364  -0.06280
C          C       0.10186   0.97045   0.91200  -0.12666
C          C       0.12567   0.97061   0.95228  -0.08037
C          C       0.20582   0.94519   0.95580  -0.16505
C          C       0.22682   0.94990   0.99866   0.44317
C          C       0.39021   0.91216   0.04809   0.46238
C          C       0.42094   0.91847   0.08817  -0.26132
C          C       0.43522   0.87486   0.11866  -0.13332
C          C       0.35409   0.86225   0.14372  -0.15390
C          C       0.36900   0.81717   0.17172  -0.10364
C          C       0.28747   0.80503   0.19709  -0.37678
C          C       0.15675   0.96993   0.17549   0.30688
C          C       0.10846   0.94393   0.20676  -0.22104
C          C       0.10050   0.94378   0.25410  -0.06417
C          C       0.14116   0.96919   0.27209  -0.13579
C          C       0.18983   0.99431   0.24186  -0.07053
C          C       0.19833   0.99565   0.19368  -0.18079
C          C       0.24713   0.02501   0.16472   0.43946
C          C       0.29994   0.06403   0.05209   0.46607
C          C       0.33616   0.09932   0.02180  -0.26471
C          C       0.26708   0.14072   0.01128  -0.13762
C          C       0.21454   0.17090   0.05395  -0.15395
C          C       0.14576   0.21192   0.04351  -0.10225
C          C       0.09159   0.24045   0.08712  -0.37043
C          C       0.08229   0.08189   0.04670   0.09539
C          C       0.02446   0.12479   0.04710  -0.19720
C          C       0.97672   0.14644   0.08959   0.16646
C          C       0.99021   0.12328   0.13010  -0.19854
C          C       0.04995   0.08048   0.12683   0.09581
C          C       0.90942   0.19114   0.09092  -0.20489
C          C       0.70456   0.81691   0.84790   0.31266
C          C       0.76826   0.77931   0.82321  -0.21740
C          C       0.76004   0.73444   0.82871  -0.07064
C          C       0.68853   0.72513   0.85947  -0.13280
C          C       0.62508   0.76174   0.88357  -0.07867
C          C       0.63058   0.80786   0.87826  -0.17148
C          C       0.55927   0.84460   0.90339   0.43828
C          C       0.48798   0.96415   0.90869   0.47053
C          C       0.41245   0.00321   0.92829  -0.27571
C          C       0.35618   0.01817   0.89527  -0.13149
C          C       0.28063   0.05927   0.91507  -0.15840
C          C       0.22011   0.07339   0.88474  -0.10323
C          C       0.14366   0.11382   0.90564  -0.37124
C          C       0.68876   0.30306   0.08308   0.09272
C          C       0.76090   0.26745   0.08262  -0.20639
C          C       0.75804   0.22132   0.08451   0.16162
C          C       0.68074   0.21344   0.08784  -0.20046
C          C       0.61180   0.25089   0.08785   0.10481
C          C       0.83333   0.18054   0.08233  -0.19875
C          C       0.09897   0.58188   0.58274   0.30240
C          C       0.03427   0.58103   0.62379  -0.22829
C          C       0.97806   0.55528   0.62643  -0.06352
C          C       0.98469   0.52901   0.58840  -0.12707
C          C       0.04916   0.52855   0.54824  -0.07923
C          C       0.10705   0.55429   0.54451  -0.16423
C          C       0.17519   0.54973   0.50153   0.44244
C          C       0.34999   0.58773   0.45206   0.46293
C          C       0.42704   0.58137   0.41201  -0.26078
C          C       0.42843   0.62495   0.38150  -0.13480
C          C       0.35970   0.63756   0.35643  -0.15565
C          C       0.35771   0.68267   0.32849  -0.10356
C          C       0.28955   0.69491   0.30299  -0.37324
C          C       0.30281   0.53007   0.32485   0.30827
C          C       0.25926   0.55592   0.29376  -0.22320
C          C       0.29804   0.55615   0.24641  -0.06364
C          C       0.38193   0.53088   0.22820  -0.13449
C          C       0.42582   0.50562   0.25824  -0.07205
C          C       0.38792   0.50421   0.30642  -0.18060
C          C       0.43708   0.47467   0.33526   0.44085
C          C       0.41665   0.43551   0.44783   0.46509
C          C       0.45831   0.40023   0.47801  -0.26587
C          C       0.42041   0.35868   0.48868  -0.13526
C          C       0.44013   0.32859   0.44600  -0.15670
C          C       0.40158   0.28767   0.45632  -0.10073
C          C       0.41900   0.25935   0.41263  -0.37086
C          C       0.21162   0.41777   0.45321   0.09416
C          C       0.19722   0.37481   0.45273  -0.19693
C          C       0.21339   0.35321   0.41021   0.16537
C          C       0.24396   0.37649   0.36974  -0.19966
C          C       0.25760   0.41933   0.37309   0.09585
C          C       0.19185   0.30854   0.40889  -0.20561
C          C       0.36915   0.68326   0.65212   0.31137
C          C       0.37067   0.72088   0.67678  -0.21698
C          C       0.32308   0.76570   0.67125  -0.07013
C          C       0.27303   0.77492   0.64046  -0.13532
C          C       0.27028   0.73829   0.61633  -0.07715
C          C       0.31653   0.69221   0.62173  -0.17260
C          C       0.30716   0.65535   0.59668   0.44038
C          C       0.36127   0.53573   0.59121   0.46969
C          C       0.34450   0.49653   0.57161  -0.27707
C          C       0.27004   0.48169   0.60460  -0.13125
C          C       0.25509   0.44059   0.58485  -0.15801
C          C       0.17836   0.42652   0.61516  -0.10291
C          C       0.16305   0.38611   0.59424  -0.36998
C          C       0.07454   0.19689   0.41670   0.09188
C          C       0.11070   0.23248   0.41732  -0.20519
C          C       0.06382   0.27862   0.41551   0.16105
C          C       0.98198   0.28657   0.41220  -0.19952
C          C       0.95039   0.24913   0.41202   0.10325
C          C       0.09657   0.31930   0.41765  -0.19794
C          C       0.68206   0.91695   0.58222   0.30105
C          C       0.65872   0.87577   0.58130  -0.22932
C          C       0.60515   0.87300   0.55561  -0.06131
C          C       0.57311   0.91115   0.52971  -0.12855
C          C       0.59741   0.95137   0.52921  -0.07968
C          C       0.65198   0.95512   0.55467  -0.16309
C          C       0.67763   0.99799   0.54991   0.44397
C          C       0.80219   0.04798   0.58792   0.46241
C          C       0.83927   0.08801   0.58152  -0.26395
C          C       0.80993   0.11850   0.62513  -0.13431
C          C       0.71623   0.14350   0.63759  -0.15547
C          C       0.68624   0.17154   0.68266  -0.10378
C          C       0.59267   0.19701   0.69485  -0.37570
C          C       0.62721   0.17482   0.53028   0.30700
C          C       0.55270   0.20596   0.55612  -0.22226
C          C       0.54415   0.25332   0.55635  -0.06188
C          C       0.60990   0.27156   0.53114  -0.13542
C          C       0.68383   0.24151   0.50597  -0.07264
C          C       0.69401   0.19331   0.50452  -0.17985
C          C       0.77206   0.16461   0.47495   0.43945
C          C       0.86452   0.05218   0.43555   0.46581
C          C       0.93614   0.02197   0.40029  -0.26502
C          C       0.90860   0.01126   0.35885  -0.13864
C          C       0.88585   0.05388   0.32872  -0.15300
C          C       0.85771   0.04351   0.28776  -0.10395
C          C       0.83173   0.08718   0.25940  -0.36973
C          C       0.66461   0.04641   0.41793   0.09424
C          C       0.64963   0.04698   0.37499  -0.19639
C          C       0.62345   0.08955   0.35352   0.16532
C          C       0.61380   0.12996   0.37688  -0.19916
C          C       0.63084   0.12651   0.41971   0.09652
C          C       0.60059   0.09104   0.30883  -0.20467
C          C       0.02232   0.84779   0.68318   0.31032
C          C       0.04861   0.82300   0.72069  -0.21770
C          C       0.99568   0.82834   0.76558  -0.06915
C          C       0.91479   0.85900   0.77499  -0.13259
C          C       0.88774   0.88322   0.73847  -0.08021
C          C       0.93923   0.87807   0.69231  -0.17125
C          C       0.90449   0.90327   0.65563   0.44120
C          C       0.95206   0.90867   0.53605   0.46939
C          C       0.91556   0.92825   0.49695  -0.27532
C          C       0.87437   0.89521   0.48188  -0.13314
C          C       0.83992   0.91507   0.44076  -0.15527
C          C       0.79355   0.88476   0.42654  -0.10415
C          C       0.75739   0.90564   0.38612  -0.37286
C          C       0.49171   0.08310   0.19688   0.09220
C          C       0.52828   0.08257   0.23254  -0.20447
C          C       0.47941   0.08444   0.27866   0.16059
C          C       0.39430   0.08771   0.28650  -0.19864
C          C       0.36275   0.08778   0.24900   0.10153
C          C       0.51399   0.08238   0.31945  -0.19837
C          C       0.18125   0.58178   0.91786   0.30229
C          C       0.11621   0.62310   0.91904  -0.22730
C          C       0.03433   0.62598   0.94491  -0.06435
C          C       0.01436   0.58783   0.97074  -0.12678
C          C       0.07805   0.54745   0.97100  -0.07948
C          C       0.16168   0.54363   0.94535  -0.16451
C          C       0.22544   0.50080   0.95004   0.44444
C          C       0.43834   0.45157   0.91238   0.46169
C          C       0.50895   0.41157   0.91882  -0.26369
C          C       0.55382   0.38123   0.87512  -0.13264
C          C       0.49753   0.35628   0.86247  -0.15576
C          C       0.54045   0.32839   0.81732  -0.10484
C          C       0.48449   0.30292   0.80505  -0.37507
C          C       0.33293   0.32403   0.96997   0.30883
C          C       0.31552   0.29278   0.94409  -0.22375
C          C       0.35492   0.24548   0.94387  -0.06342
C          C       0.41356   0.22750   0.96922  -0.13406
C          C       0.43192   0.25770   0.99449  -0.07445
C          C       0.39230   0.30585   0.99585  -0.17929
C          C       0.41189   0.33491   0.02527   0.43998
C          C       0.35198   0.44766   0.06419   0.46812
C          C       0.35799   0.47814   0.09937  -0.26887
C          C       0.27854   0.48877   0.14089  -0.13474
C          C       0.26843   0.44615   0.17109  -0.15640
C          C       0.18921   0.45650   0.21212  -0.10086
C          C       0.17861   0.41283   0.24052  -0.37172
C          C       0.12894   0.45303   0.08186   0.09489
C          C       0.07174   0.45271   0.12486  -0.19781
C          C       0.06648   0.41027   0.14662   0.16461
C          C       0.12018   0.36973   0.12344  -0.19951
C          C       0.17646   0.37292   0.08053   0.09766
C          C       0.00057   0.40905   0.19139  -0.20616
C          C       0.55169   0.65205   0.81702   0.31205
C          C       0.59100   0.67666   0.77947  -0.21736
C          C       0.58847   0.67111   0.73457  -0.06989
C          C       0.54742   0.64049   0.72521  -0.13424
C          C       0.50779   0.61645   0.76177  -0.07750
C          C       0.50792   0.62173   0.80794  -0.17327
C          C       0.46191   0.59652   0.84468   0.44006
C          C       0.39680   0.59102   0.96426   0.46975
C          C       0.34070   0.57168   0.00354  -0.27468
C          C       0.25155   0.60482   0.01823  -0.13444
C          C       0.19562   0.58507   0.05928  -0.15535
C          C       0.10483   0.61530   0.07338  -0.10472
C          C       0.04943   0.59425   0.11376  -0.37105
C          C       0.77163   0.41714   0.30314   0.09268
C          C       0.84340   0.41762   0.26760  -0.20536
C          C       0.84266   0.41569   0.22143   0.16199
C          C       0.76873   0.41247   0.21341  -0.20128
C          C       0.69971   0.41241   0.25078   0.10448
C          C       0.91601   0.41763   0.18072  -0.19733
C          C       0.73650   0.08209   0.08259   0.30244
C          C       0.76083   0.08074   0.12381  -0.22750
C          C       0.84016   0.05509   0.12636  -0.06266
C          C       0.89814   0.02955   0.08801  -0.12686
C          C       0.87433   0.02939   0.04773  -0.08033
C          C       0.79417   0.05481   0.04420  -0.16499
C          C       0.77317   0.05010   0.00134   0.44309
C          C       0.60978   0.08784   0.95192   0.46237
C          C       0.57905   0.08153   0.91183  -0.26149
C          C       0.56477   0.12514   0.88134  -0.13328
C          C       0.64590   0.13775   0.85628  -0.15401
C          C       0.63100   0.18283   0.82828  -0.10340
C          C       0.71253   0.19497   0.80291  -0.37644
C          C       0.84324   0.03007   0.82451   0.30687
C          C       0.89154   0.05607   0.79324  -0.22107
C          C       0.89950   0.05622   0.74591  -0.06423
C          C       0.85883   0.03081   0.72791  -0.13585
C          C       0.81016   0.00569   0.75815  -0.07046
C          C       0.80167   0.00435   0.80632  -0.18057
C          C       0.75287   0.97499   0.83529   0.43929
C          C       0.70005   0.93597   0.94792   0.46637
C          C       0.66384   0.90068   0.97820  -0.26462
C          C       0.73291   0.85928   0.98872  -0.13762
C          C       0.78546   0.82910   0.94606  -0.15411
C          C       0.85423   0.78808   0.95649  -0.10208
C          C       0.90840   0.75955   0.91289  -0.37048
C          C       0.91770   0.91811   0.95331   0.09548
C          C       0.97553   0.87521   0.95290  -0.19742
C          C       0.02327   0.85356   0.91042   0.16672
C          C       0.00978   0.87672   0.86991  -0.19873
C          C       0.95004   0.91952   0.87317   0.09574
C          C       0.09058   0.80886   0.90909  -0.20484
C          C       0.29543   0.18309   0.15211   0.31261
C          C       0.23174   0.22069   0.17680  -0.21725
C          C       0.23996   0.26556   0.17129  -0.07057
C          C       0.31147   0.27487   0.14053  -0.13276
C          C       0.37491   0.23826   0.11644  -0.07858
C          C       0.36942   0.19214   0.12174  -0.17181
C          C       0.44073   0.15540   0.09661   0.43841
C          C       0.51201   0.03585   0.09131   0.47046
C          C       0.58755   0.99679   0.07172  -0.27585
C          C       0.64381   0.98183   0.10474  -0.13112
C          C       0.71937   0.94073   0.08493  -0.15868
C          C       0.77988   0.92661   0.11526  -0.10313
C          C       0.85634   0.88618   0.09436  -0.37109
C          C       0.31123   0.69694   0.91692   0.09293
C          C       0.23910   0.73255   0.91739  -0.20627
C          C       0.24196   0.77868   0.91550   0.16153
C          C       0.31926   0.78656   0.91216  -0.20040
C          C       0.38819   0.74911   0.91216   0.10476
C          C       0.16667   0.81946   0.91767  -0.19878
C          C       0.90103   0.41812   0.41727   0.30238
C          C       0.96572   0.41897   0.37622  -0.22826
C          C       0.02193   0.44472   0.37357  -0.06364
C          C       0.01530   0.47099   0.41160  -0.12706
C          C       0.95084   0.47145   0.45176  -0.07935
C          C       0.89294   0.44571   0.45549  -0.16400
C          C       0.82480   0.45027   0.49848   0.44237
C          C       0.65000   0.41227   0.54795   0.46282
C          C       0.57295   0.41863   0.58800  -0.26080
C          C       0.57156   0.37505   0.61850  -0.13439
C          C       0.64029   0.36244   0.64358  -0.15572
C          C       0.64229   0.31733   0.67151  -0.10346
C          C       0.71045   0.30509   0.69701  -0.37354
C          C       0.69718   0.46993   0.67516   0.30815
C          C       0.74074   0.44408   0.70624  -0.22325
C          C       0.70196   0.44385   0.75359  -0.06363
C          C       0.61806   0.46912   0.77180  -0.13423
C          C       0.57418   0.49438   0.74177  -0.07166
C          C       0.61208   0.49579   0.69358  -0.18075
C          C       0.56292   0.52533   0.66474   0.44092
C          C       0.58334   0.56449   0.55217   0.46509
C          C       0.54168   0.59977   0.52199  -0.26581
C          C       0.57958   0.64132   0.51132  -0.13525
C          C       0.55986   0.67141   0.55400  -0.15645
C          C       0.59841   0.71233   0.54368  -0.10077
C          C       0.58099   0.74065   0.58737  -0.37063
C          C       0.78837   0.58223   0.54680   0.09390
C          C       0.80278   0.62519   0.54727  -0.19691
C          C       0.78660   0.64679   0.58979   0.16564
C          C       0.75603   0.62351   0.63026  -0.19989
C          C       0.74240   0.58067   0.62691   0.09609
C          C       0.80815   0.69146   0.59111  -0.20590
C          C       0.63085   0.31674   0.34789   0.31135
C          C       0.62933   0.27912   0.32322  -0.21693
C          C       0.67692   0.23430   0.32876  -0.07018
C          C       0.72697   0.22508   0.35955  -0.13533
C          C       0.72972   0.26171   0.38368  -0.07701
C          C       0.68346   0.30779   0.37827  -0.17277
C          C       0.69283   0.34465   0.40332   0.44040
C          C       0.63873   0.46427   0.40880   0.46982
C          C       0.65549   0.50347   0.42840  -0.27717
C          C       0.72995   0.51831   0.39540  -0.13131
C          C       0.74490   0.55941   0.41516  -0.15800
C          C       0.82163   0.57348   0.38484  -0.10316
C          C       0.83695   0.61389   0.40577  -0.36974
C          C       0.92546   0.80311   0.58330   0.09213
C          C       0.88930   0.76752   0.58268  -0.20515
C          C       0.93617   0.72138   0.58450   0.16101
C          C       0.01802   0.71343   0.58781  -0.19948
C          C       0.04961   0.75087   0.58799   0.10315
C          C       0.90343   0.68070   0.58236  -0.19780
C          C       0.31793   0.08305   0.41779   0.30106
C          C       0.34127   0.12423   0.41870  -0.22936
C          C       0.39485   0.12700   0.44440  -0.06146
C          C       0.42688   0.08885   0.47029  -0.12858
C          C       0.40259   0.04863   0.47079  -0.07946
C          C       0.34802   0.04488   0.44533  -0.16321
C          C       0.32236   0.00201   0.45010   0.44388
C          C       0.19781   0.95202   0.41208   0.46227
C          C       0.16072   0.91199   0.41849  -0.26378
C          C       0.19006   0.88150   0.37487  -0.13421
C          C       0.28377   0.85650   0.36241  -0.15575
C          C       0.31376   0.82846   0.31734  -0.10353
C          C       0.40732   0.80299   0.30516  -0.37597
C          C       0.37279   0.82518   0.46972   0.30703
C          C       0.44730   0.79404   0.44388  -0.22224
C          C       0.45585   0.74668   0.44366  -0.06202
C          C       0.39010   0.72844   0.46887  -0.13537
C          C       0.31617   0.75849   0.49403  -0.07266
C          C       0.30598   0.80669   0.49548  -0.17974
C          C       0.22794   0.83539   0.52505   0.43936
C          C       0.13547   0.94782   0.56445   0.46612
C          C       0.06386   0.97803   0.59972  -0.26518
C          C       0.09139   0.98874   0.64115  -0.13863
C          C       0.11415   0.94611   0.67128  -0.15302
C          C       0.14229   0.95649   0.71224  -0.10397
C          C       0.16827   0.91282   0.74060  -0.36931
C          C       0.33538   0.95359   0.58207   0.09421
C          C       0.35037   0.95302   0.62501  -0.19639
C          C       0.37654   0.91045   0.64648   0.16530
C          C       0.38619   0.87004   0.62312  -0.19898
C          C       0.36916   0.87349   0.58029   0.09661
C          C       0.39940   0.90896   0.69117  -0.20443
C          C       0.97768   0.15221   0.31682   0.31025
C          C       0.95139   0.17700   0.27931  -0.21756
C          C       0.00432   0.17166   0.23442  -0.06921
C          C       0.08520   0.14100   0.22502  -0.13267
C          C       0.11226   0.11678   0.26154  -0.08029
C          C       0.06076   0.12193   0.30769  -0.17131
C          C       0.09550   0.09673   0.34437   0.44121
C          C       0.04793   0.09133   0.46395   0.46935
C          C       0.08443   0.07175   0.50305  -0.27544
C          C       0.12562   0.10479   0.51813  -0.13301
C          C       0.16007   0.08493   0.55925  -0.15516
C          C       0.20644   0.11524   0.57347  -0.10423
C          C       0.24261   0.09436   0.61388  -0.37295
C          C       0.50829   0.91690   0.80312   0.09233
C          C       0.47171   0.91743   0.76746  -0.20440
C          C       0.52058   0.91556   0.72135   0.16068
C          C       0.60569   0.91229   0.71350  -0.19845
C          C       0.63725   0.91222   0.75100   0.10114
C          C       0.48601   0.91762   0.68055  -0.19867
C          C       0.81874   0.41822   0.08214   0.30203
C          C       0.88378   0.37690   0.08097  -0.22717
C          C       0.96566   0.37402   0.05509  -0.06420
C          C       0.98564   0.41217   0.02926  -0.12710
C          C       0.92194   0.45255   0.02900  -0.07958
C          C       0.83831   0.45637   0.05465  -0.16433
C          C       0.77456   0.49920   0.04996   0.44441
C          C       0.56165   0.54843   0.08762   0.46196
C          C       0.49104   0.58843   0.08118  -0.26394
C          C       0.44618   0.61877   0.12489  -0.13261
C          C       0.50247   0.64372   0.13753  -0.15570
C          C       0.45955   0.67161   0.18268  -0.10469
C          C       0.51550   0.69708   0.19496  -0.37515
C          C       0.66706   0.67597   0.03004   0.30878
C          C       0.68447   0.70722   0.05591  -0.22370
C          C       0.64508   0.75452   0.05614  -0.06348
C          C       0.58644   0.77250   0.03078  -0.13392
C          C       0.56807   0.74230   0.00551  -0.07434
C          C       0.60770   0.69414   0.00415  -0.17926
C          C       0.58811   0.66508   0.97474   0.43982
C          C       0.64802   0.55234   0.93581   0.46814
C          C       0.64200   0.52186   0.90064  -0.26891
C          C       0.72146   0.51123   0.85912  -0.13481
C          C       0.73156   0.55385   0.82891  -0.15644
C          C       0.81079   0.54350   0.78789  -0.10095
C          C       0.82139   0.58716   0.75948  -0.37187
C          C       0.87106   0.54697   0.91815   0.09492
C          C       0.92825   0.54729   0.87514  -0.19781
C          C       0.93352   0.58973   0.85338   0.16442
C          C       0.87981   0.63027   0.87657  -0.19958
C          C       0.82354   0.62708   0.91948   0.09741
C          C      -0.00057   0.59095   0.80861  -0.20594
C          C       0.44831   0.34795   0.18298   0.31209
C          C       0.40900   0.32334   0.22053  -0.21731
C          C       0.41153   0.32889   0.26544  -0.07002
C          C       0.45257   0.35951   0.27480  -0.13423
C          C       0.49220   0.38355   0.23823  -0.07766
C          C       0.49207   0.37826   0.19206  -0.17315
C          C       0.53809   0.40348   0.15532   0.44031
C          C       0.60320   0.40898   0.03574   0.46961
C          C       0.65930   0.42832   0.99647  -0.27467
C          C       0.74844   0.39518   0.98178  -0.13432
C          C       0.80437   0.41493   0.94072  -0.15544
C          C       0.89517   0.38470   0.92663  -0.10460
C          C       0.95057   0.40574   0.88625  -0.37126
C          C       0.22837   0.58286   0.69687   0.09276
C          C       0.15659   0.58238   0.73240  -0.20546
C          C       0.15733   0.58431   0.77858   0.16222
C          C       0.23127   0.58753   0.78660  -0.20128
C          C       0.30029   0.58759   0.74922   0.10454
C          C       0.08399   0.58237   0.81929  -0.19756
N          N       0.30321   0.92729   0.00326  -0.31454
N          N       0.31612   0.93688   0.04494  -0.31930
N          N       0.25471   0.02852   0.11897  -0.30500
N          N       0.29597   0.06131   0.09648  -0.32288
N          N       0.09527   0.05992   0.08585  -0.24391
N          N       0.56130   0.88891   0.89774  -0.30296
N          N       0.48764   0.92113   0.92183  -0.34728
N          N       0.61531   0.29524   0.08514  -0.25158
N          N       0.23354   0.57241   0.49692  -0.31460
N          N       0.29763   0.56283   0.45529  -0.31961
N          N       0.40243   0.47095   0.38097  -0.30331
N          N       0.45398   0.43817   0.40341  -0.32276
N          N       0.24154   0.43986   0.41409  -0.24214
N          N       0.34772   0.61105   0.60246  -0.30432
N          N       0.33079   0.57873   0.57817  -0.34680
N          N       0.99539   0.20477   0.41455  -0.25104
N          N       0.73095   0.00284   0.57275  -0.31557
N          N       0.75355   0.04445   0.56285  -0.31851
N          N       0.78348   0.11885   0.47132  -0.30412
N          N       0.85741   0.09659   0.43840  -0.32338
N          N       0.65561   0.08547   0.44012  -0.24405
N          N       0.95050   0.89750   0.61126  -0.30221
N          N       0.90895   0.92176   0.57911  -0.34950
N          N       0.41045   0.08521   0.20466  -0.25072
N          N       0.30639   0.49608   0.92720  -0.31558
N          N       0.36103   0.45458   0.93694  -0.31843
N          N       0.37333   0.38061   0.02896  -0.30341
N          N       0.39201   0.40324   0.06172  -0.32470
N          N       0.18088   0.41384   0.05988  -0.24450
N          N       0.45841   0.60219   0.88900  -0.30336
N          N       0.40910   0.57796   0.92127  -0.34770
N          N       0.70036   0.41501   0.29517  -0.25227
N          N       0.69678   0.07271   0.99675  -0.31419
N          N       0.68388   0.06312   0.95507  -0.31971
N          N       0.74528   0.97148   0.88104  -0.30488
N          N       0.70402   0.93869   0.90353  -0.32310
N          N       0.90472   0.94008   0.91415  -0.24382
N          N       0.43870   0.11109   0.10227  -0.30243
N          N       0.51235   0.07887   0.07818  -0.34787
N          N       0.38468   0.70476   0.91487  -0.25189
N          N       0.76645   0.42759   0.50308  -0.31500
N          N       0.70237   0.43717   0.54472  -0.31908
N          N       0.59756   0.52905   0.61903  -0.30367
N          N       0.54601   0.56183   0.59659  -0.32236
N          N       0.75845   0.56014   0.58591  -0.24210
N          N       0.65228   0.38895   0.39755  -0.30423
N          N       0.66921   0.42127   0.42183  -0.34676
N          N       0.00461   0.79523   0.58545  -0.25131
N          N       0.26904   0.99716   0.42726  -0.31561
N          N       0.24645   0.95555   0.43715  -0.31843
N          N       0.21652   0.88115   0.52869  -0.30440
N          N       0.14259   0.90341   0.56160  -0.32306
N          N       0.34439   0.91453   0.55988  -0.24435
N          N       0.04950   0.10250   0.38875  -0.30206
N          N       0.09105   0.07824   0.42089  -0.34945
N          N       0.58955   0.91479   0.79534  -0.25055
N          N       0.69360   0.50392   0.07280  -0.31549
N          N       0.63896   0.54542   0.06306  -0.31888
N          N       0.62667   0.61939   0.97104  -0.30313
N          N       0.60799   0.59676   0.93828  -0.32497
N          N       0.81911   0.58615   0.94013  -0.24399
N          N       0.54159   0.39781   0.11100  -0.30339
N          N       0.59089   0.42204   0.07873  -0.34770
N          N       0.29964   0.58499   0.70483  -0.25264
O          O       0.33950   0.89076   0.91761  -0.50766
O          O       0.17240   0.97695   0.03111  -0.46629
O          O       0.44005   0.88175   0.01571  -0.49369
O          O       0.15994   0.96866   0.13081  -0.48500
O          O       0.28111   0.04862   0.18379  -0.46181
O          O       0.26906   0.03759   0.03352  -0.49822
O          O       0.71880   0.85847   0.84134  -0.48423
O          O       0.49299   0.83441   0.93046  -0.46329
O          O       0.55108   0.97319   0.87748  -0.47930
O          O       0.14823   0.60899   0.58248  -0.50684
O          O       0.18009   0.52282   0.46896  -0.46789
O          O       0.33666   0.61834   0.48432  -0.49321
O          O       0.26087   0.53163   0.36965  -0.48439
O          O       0.51362   0.45119   0.31609  -0.46308
O          O       0.34085   0.46199   0.46650  -0.49879
O          O       0.41822   0.64175   0.65872  -0.48242
O          O       0.25801   0.66547   0.56948  -0.46433
O          O       0.40229   0.52679   0.62242  -0.47858
O          O       0.73076   0.91745   0.60939  -0.50542
O          O       0.65090   0.03023   0.52253  -0.46701
O          O       0.82055   0.01597   0.61881  -0.49302
O          O       0.62947   0.13005   0.53167  -0.48565
O          O       0.82920   0.18390   0.45133  -0.46303
O          O       0.80759   0.03343   0.46202  -0.49745
O          O       0.07801   0.84142   0.64161  -0.48230
O          O       0.82824   0.93052   0.66589  -0.46514
O          O       0.02415   0.87745   0.52691  -0.47860
O          O       0.25752   0.58112   0.89061  -0.50603
O          O       0.20338   0.46862   0.97742  -0.46733
O          O       0.45599   0.48387   0.88189  -0.49399
O          O       0.29229   0.36875   0.96838  -0.48598
O          O       0.46517   0.31596   0.04870  -0.46347
O          O       0.30288   0.46618   0.03758  -0.49913
O          O       0.55926   0.65865   0.85860  -0.48238
O          O       0.42282   0.56937   0.83448  -0.46448
O          O       0.42922   0.62212   0.97318  -0.47856
O          O       0.66049   0.10924   0.08240  -0.50711
O          O       0.82759   0.02305   0.96890  -0.46662
O          O       0.55995   0.11825   0.98429  -0.49341
O          O       0.84006   0.03134   0.86920  -0.48496
O          O       0.71888   0.95138   0.81622  -0.46195
O          O       0.73094   0.96241   0.96648  -0.49800
O          O       0.28120   0.14153   0.15867  -0.48393
O          O       0.50700   0.16559   0.06954  -0.46363
O          O       0.44892   0.02681   0.12253  -0.47882
O          O       0.85176   0.39101   0.41752  -0.50684
O          O       0.81991   0.47718   0.53104  -0.46791
O          O       0.66333   0.38166   0.51568  -0.49319
O          O       0.73913   0.46837   0.63036  -0.48468
O          O       0.48638   0.54881   0.68391  -0.46276
O          O       0.65915   0.53801   0.53350  -0.49939
O          O       0.58177   0.35825   0.34128  -0.48234
O          O       0.74199   0.33453   0.43052  -0.46430
O          O       0.59770   0.47321   0.37758  -0.47869
O          O       0.26924   0.08255   0.39062  -0.50551
O          O       0.34910   0.96976   0.47747  -0.46701
O          O       0.17945   0.98403   0.38119  -0.49308
O          O       0.37052   0.86995   0.46834  -0.48594
O          O       0.17079   0.81610   0.54867  -0.46285
O          O       0.19240   0.96657   0.53798  -0.49781
O          O       0.92198   0.15858   0.35839  -0.48196
O          O       0.17175   0.06948   0.33411  -0.46546
O          O       0.97584   0.12255   0.47310  -0.47823
O          O       0.74247   0.41888   0.10940  -0.50559
O          O       0.79662   0.53138   0.02259  -0.46763
O          O       0.54401   0.51613   0.11811  -0.49358
O          O       0.70771   0.63125   0.03163  -0.48593
O          O       0.53483   0.68403   0.95130  -0.46344
O          O       0.69712   0.53381   0.96242  -0.49921
O          O       0.44074   0.34135   0.14140  -0.48234
O          O       0.57718   0.43063   0.16552  -0.46448
O          O       0.57077   0.37788   0.02682  -0.47866

