data_crystal

_audit_creation_method 'AiiDA-DDEC plugin'

_cell_length_a        15.20256
_cell_length_b        24.24371
_cell_length_c        32.68673

_cell_angle_alpha     73.70844
_cell_angle_beta     76.61173
_cell_angle_gamma     71.73319

_symmetry_space_group_name_Hall 'P 1'
_symmetry_space_group_name_H-M  'P 1'

loop_
_symmetry_equiv_pos_as_xyz
 'x,y,z'

loop_
_atom_site_label
_atom_site_type_symbol
_atom_site_fract_x
_atom_site_fract_y
_atom_site_fract_z
_atom_site_charge
Zn         Zn      0.59144   0.59361   0.99231   0.96047
Zn         Zn      0.93506   0.91029   0.65169   0.94317
Zn         Zn      0.08698   0.82183   0.60653   0.99363
Zn         Zn      0.52180   0.51278   0.94795   1.03554
Zn         Zn      0.17616   0.90693   0.50788   0.95668
Zn         Zn      0.49728   0.58975   0.84824   0.94050
Zn         Zn      0.51587   0.67862   0.89310   0.99258
Zn         Zn      0.98306   0.98727   0.55212   1.03532
Zn         Zn      0.40855   0.40639   0.00769   0.96028
Zn         Zn      0.06493   0.08971   0.34831   0.94309
Zn         Zn      0.91301   0.17817   0.39347   0.99372
Zn         Zn      0.47819   0.48722   0.05205   1.03564
Zn         Zn      0.82383   0.09307   0.49212   0.95656
Zn         Zn      0.50271   0.41025   0.15177   0.94060
Zn         Zn      0.48412   0.32138   0.10690   0.99265
Zn         Zn      0.01693   0.01273   0.44788   1.03521
H          H       0.35876   0.57386   0.74494   0.10981
H          H       0.59304   0.46810   0.67407   0.10622
H          H       0.19443   0.45463   0.73436   0.10174
H          H       0.04280   0.46151   0.78286   0.10308
H          H       0.13174   0.54557   0.86006   0.10413
H          H       0.28464   0.53658   0.81256   0.11230
H          H       0.96255   0.42850   0.85013   0.10841
H          H       0.80144   0.44606   0.89280   0.12179
H          H       0.81742   0.61580   0.90212   0.11188
H          H       0.97718   0.59884   0.85941   0.09639
H          H       0.47812   0.59810   0.75978   0.10805
H          H       0.57843   0.66451   0.74861   0.10352
H          H       0.70254   0.62518   0.62392   0.10585
H          H       0.60330   0.55761   0.63586   0.09767
H          H       0.62379   0.74625   0.71915   0.10062
H          H       0.73374   0.80829   0.70704   0.11395
H          H       0.93428   0.69789   0.62729   0.11696
H          H       0.82522   0.63522   0.63909   0.10476
H          H       0.63272   0.40653   0.63800   0.10316
H          H       0.72085   0.31016   0.62188   0.11049
H          H       0.50649   0.23115   0.70425   0.10390
H          H       0.42147   0.32634   0.72313   0.10259
H          H       0.74548   0.23727   0.59070   0.10554
H          H       0.84289   0.13861   0.57888   0.11614
H          H       0.72151   0.05424   0.70387   0.10675
H          H       0.62655   0.15264   0.71690   0.09905
H          H       0.34531   0.40699   0.72969   0.10329
H          H       0.34737   0.22100   0.14374   0.11402
H          H       0.28064   0.14301   0.05612   0.10747
H          H       0.49785   0.04185   0.13316   0.10249
H          H       0.61953   0.08215   0.13479   0.10290
H          H       0.72555   0.08356   0.18104   0.10186
H          H       0.48957   0.17588   0.26021   0.09663
H          H       0.38428   0.17707   0.21271   0.10576
H          H       0.78082   0.05002   0.24108   0.10294
H          H       0.89235   0.05581   0.28343   0.12158
H          H       0.70438   0.21851   0.31241   0.10304
H          H       0.59559   0.21577   0.26759   0.10519
H          H       0.15682   0.22093   0.15865   0.10392
H          H       0.01067   0.30081   0.14695   0.09896
H          H       0.12077   0.34740   0.01181   0.11308
H          H       0.26681   0.26691   0.02375   0.10671
H          H       0.02202   0.44052   0.02407   0.10613
H          H       0.86596   0.51018   0.01046   0.11075
H          H       0.72929   0.38660   0.10386   0.09933
H          H       0.88306   0.31720   0.11741   0.09856
H          H       0.26622   0.05473   0.06108   0.10521
H          H       0.29428   0.96793   0.03014   0.10454
H          H       0.58286   0.91418   0.04831   0.10713
H          H       0.55492   0.00037   0.07948   0.10188
H          H       0.36899   0.92474   0.97061   0.10277
H          H       0.40595   0.83486   0.94024   0.11491
H          H       0.58657   0.73559   0.03437   0.12132
H          H       0.55310   0.82522   0.06384   0.11217
H          H       0.58463   0.39538   0.07975   0.38356
H          H       0.98760   0.08768   0.50117   0.40861
H          H       0.67745   0.92610   0.75501   0.10994
H          H       0.73543   0.03199   0.82581   0.10713
H          H       0.38331   0.04540   0.76543   0.10175
H          H       0.28699   0.03847   0.71688   0.10490
H          H       0.53697   0.95437   0.63982   0.10195
H          H       0.63349   0.96343   0.68735   0.11259
H          H       0.24072   0.07115   0.64949   0.10608
H          H       0.14024   0.05303   0.60673   0.12196
H          H       0.33546   0.88327   0.59812   0.11333
H          H       0.43553   0.90073   0.64076   0.09554
H          H       0.83596   0.90173   0.74025   0.10919
H          H       0.99135   0.83535   0.75153   0.10382
H          H       0.95188   0.87496   0.87614   0.10564
H          H       0.79703   0.94244   0.86412   0.09927
H          H       0.08866   0.75367   0.78096   0.10035
H          H       0.24884   0.69177   0.79261   0.11487
H          H       0.26063   0.80191   0.87232   0.11795
H          H       0.10030   0.86439   0.86106   0.10590
H          H       0.67731   0.09351   0.86201   0.10249
H          H       0.65274   0.18991   0.87815   0.10952
H          H       0.44155   0.26879   0.79573   0.10391
H          H       0.47080   0.17356   0.77684   0.10283
H          H       0.57361   0.26264   0.90926   0.10290
H          H       0.56096   0.36130   0.92110   0.11417
H          H       0.48030   0.44578   0.79599   0.10586
H          H       0.49630   0.34738   0.78295   0.09769
H          H       0.48189   0.09299   0.77024   0.10307
H          H       0.71235   0.27897   0.35634   0.11580
H          H       0.48026   0.35698   0.44386   0.10572
H          H       0.67282   0.45822   0.36675   0.10285
H          H       0.83663   0.41790   0.36526   0.10286
H          H       0.99010   0.41651   0.31908   0.10173
H          H       0.92566   0.32416   0.23983   0.09742
H          H       0.77421   0.32296   0.28722   0.10607
H          H       0.07176   0.45003   0.25911   0.10470
H          H       0.23092   0.44461   0.21641   0.12074
H          H       0.23481   0.28174   0.18752   0.10450
H          H       0.07895   0.28429   0.23252   0.10561
H          H       0.53661   0.27894   0.34132   0.10380
H          H       0.45829   0.19923   0.35304   0.09840
H          H       0.47993   0.15273   0.48818   0.11476
H          H       0.55764   0.23311   0.47632   0.10766
H          H       0.48710   0.05971   0.47596   0.10800
H          H       0.38670   0.99011   0.48966   0.11156
H          H       0.21995   0.11326   0.39607   0.09958
H          H       0.31769   0.18288   0.38257   0.09736
H          H       0.38220   0.44532   0.43899   0.10432
H          H       0.29255   0.53207   0.46989   0.10411
H          H       0.54532   0.58593   0.45181   0.10654
H          H       0.63477   0.49984   0.42062   0.10320
H          H       0.26419   0.57573   0.52932   0.10341
H          H       0.18055   0.66580   0.55933   0.11540
H          H       0.35596   0.76484   0.46520   0.11966
H          H       0.44218   0.67492   0.43618   0.11342
H          H       0.06082   0.10400   0.42021   0.38429
H          H       0.57558   0.41225  -0.00097   0.40742
H          H       0.64123   0.42614   0.25506   0.10982
H          H       0.40695   0.53190   0.32593   0.10662
H          H       0.80556   0.54537   0.26564   0.10164
H          H       0.95719   0.53849   0.21714   0.10275
H          H       0.86825   0.45443   0.13994   0.10418
H          H       0.71535   0.46342   0.18744   0.11257
H          H       0.03744   0.57150   0.14987   0.10844
H          H       0.19855   0.55394   0.10720   0.12160
H          H       0.18257   0.38420   0.09788   0.11187
H          H       0.02281   0.40116   0.14059   0.09660
H          H       0.52187   0.40190   0.24022   0.10776
H          H       0.42156   0.33549   0.25139   0.10355
H          H       0.29745   0.37482   0.37608   0.10621
H          H       0.39669   0.44239   0.36414   0.09761
H          H       0.37619   0.25375   0.28085   0.10024
H          H       0.26624   0.19171   0.29296   0.11397
H          H       0.06571   0.30211   0.37272   0.11719
H          H       0.17477   0.36478   0.36091   0.10477
H          H       0.36727   0.59347   0.36200   0.10350
H          H       0.27914   0.68984   0.37812   0.11196
H          H       0.49350   0.76885   0.29575   0.10363
H          H       0.57852   0.67366   0.27687   0.10230
H          H       0.25452   0.76273   0.40930   0.10565
H          H       0.15710   0.86139   0.42112   0.11632
H          H       0.27848   0.94576   0.29613   0.10667
H          H       0.37344   0.84735   0.28310   0.09889
H          H       0.65468   0.59301   0.27031   0.10297
H          H       0.65262   0.77900   0.85626   0.11410
H          H       0.71935   0.85698   0.94388   0.10727
H          H       0.50214   0.95815   0.86684   0.10263
H          H       0.38046   0.91785   0.86521   0.10292
H          H       0.27444   0.91644   0.81896   0.10210
H          H       0.51042   0.82412   0.73979   0.09652
H          H       0.61571   0.82293   0.78729   0.10556
H          H       0.21917   0.94998   0.75893   0.10278
H          H       0.10764   0.94419   0.71657   0.12178
H          H       0.29561   0.78149   0.68759   0.10318
H          H       0.40440   0.78423   0.73241   0.10505
H          H       0.84317   0.77907   0.84136   0.10391
H          H       0.98932   0.69919   0.85305   0.09874
H          H       0.87922   0.65260   0.98819   0.11304
H          H       0.73318   0.73309   0.97625   0.10686
H          H       0.97797   0.55948   0.97593   0.10650
H          H       0.13403   0.48982   0.98954   0.11087
H          H       0.27070   0.61340   0.89614   0.09893
H          H       0.11693   0.68280   0.88259   0.09846
H          H       0.73377   0.94527   0.93892   0.10500
H          H       0.70571   0.03207   0.96986   0.10422
H          H       0.41713   0.08582   0.95169   0.10733
H          H       0.44507  -0.00037   0.92052   0.10218
H          H       0.63100   0.07526   0.02939   0.10255
H          H       0.59404   0.16513   0.05976   0.11479
H          H       0.41342   0.26441   0.96563   0.12152
H          H       0.44689   0.17478   0.93616   0.11227
H          H       0.41536   0.60462   0.92025   0.38407
H          H       0.01239   0.91232   0.49883   0.40897
H          H       0.32254   0.07390   0.24499   0.10991
H          H       0.26456   0.96801   0.17419   0.10732
H          H       0.61668   0.95460   0.23457   0.10167
H          H       0.71300   0.96153   0.28312   0.10454
H          H       0.46302   0.04563   0.36018   0.10208
H          H       0.36650   0.03657   0.31265   0.11298
H          H       0.75927   0.92884   0.35051   0.10605
H          H       0.85975   0.94697   0.39327   0.12177
H          H       0.66453   0.11673   0.40188   0.11317
H          H       0.56446   0.09927   0.35924   0.09564
H          H       0.16403   0.09827   0.25975   0.10892
H          H       0.00864   0.16465   0.24847   0.10392
H          H       0.04811   0.12504   0.12386   0.10582
H          H       0.20296   0.05756   0.13588   0.09916
H          H       0.91133   0.24633   0.21904   0.10018
H          H       0.75115   0.30823   0.20739   0.11487
H          H       0.73936   0.19809   0.12769   0.11823
H          H       0.89969   0.13561   0.13894   0.10599
H          H       0.32268   0.90649   0.13799   0.10266
H          H       0.34725   0.81009   0.12185   0.10981
H          H       0.55844   0.73121   0.20427   0.10382
H          H       0.52919   0.82644   0.22317   0.10255
H          H       0.42638   0.73736   0.09074   0.10292
H          H       0.43903   0.63870   0.07890   0.11430
H          H       0.51969   0.55422   0.20401   0.10586
H          H       0.50369   0.65262   0.21705   0.09767
H          H       0.51810   0.90701   0.22976   0.10288
H          H       0.28764   0.72103   0.64366   0.11584
H          H       0.51973   0.64302   0.55614   0.10534
H          H       0.32717   0.54178   0.63325   0.10305
H          H       0.16336   0.58210   0.63474   0.10287
H          H       0.00989   0.58349   0.68092   0.10208
H          H       0.07433   0.67584   0.76017   0.09740
H          H       0.22578   0.67704   0.71278   0.10586
H          H       0.92823   0.54997   0.74089   0.10314
H          H       0.76907   0.55539   0.78359   0.12097
H          H       0.76518   0.71826   0.81248   0.10450
H          H       0.92104   0.71571   0.76748   0.10539
H          H       0.46337   0.72106   0.65868   0.10394
H          H       0.54170   0.80077   0.64696   0.09830
H          H       0.52006   0.84726   0.51182   0.11456
H          H       0.44235   0.76689   0.52368   0.10777
H          H       0.51289   0.94029   0.52404   0.10833
H          H       0.61329   0.00989   0.51034   0.11146
H          H       0.78003   0.88674   0.60393   0.09925
H          H       0.68230   0.81712   0.61743   0.09744
H          H       0.61779   0.55468   0.56101   0.10405
H          H       0.70744   0.46792   0.53011   0.10388
H          H       0.45467   0.41407   0.54819   0.10680
H          H       0.36522   0.50016   0.57938   0.10342
H          H       0.73580   0.42427   0.47068   0.10319
H          H       0.81944   0.33420   0.44067   0.11525
H          H       0.64403   0.23516   0.53480   0.11984
H          H       0.55781   0.32508   0.56382   0.11374
H          H       0.93917   0.89599   0.57979   0.38460
H          H       0.42441   0.58775   0.00097   0.40774
C          C       0.34252   0.49052   0.74077   0.07611
C          C       0.39158   0.53384   0.73244  -0.17554
C          C       0.48107   0.52674   0.70736   0.07549
C          C       0.52145   0.47504   0.69105  -0.17854
C          C       0.25065   0.49597   0.76923   0.06248
C          C       0.18157   0.47379   0.76225  -0.13565
C          C       0.09588   0.47776   0.78956  -0.13678
C          C       0.07496   0.50490   0.82471   0.06015
C          C       0.14452   0.52640   0.83214  -0.12430
C          C       0.23081   0.52170   0.80509  -0.12668
C          C       0.98149   0.51260   0.85167   0.08150
C          C       0.93057   0.46972   0.86122  -0.14984
C          C       0.84092   0.47907   0.88524  -0.08445
C          C       0.79964   0.53188   0.90013  -0.05216
C          C       0.84991   0.57472   0.89092  -0.08447
C          C       0.93966   0.56486   0.86723  -0.13815
C          C       0.70402   0.54253   0.92563   0.58730
C          C       0.53485   0.57115   0.69923   0.07011
C          C       0.52691   0.60410   0.72976  -0.12627
C          C       0.58373   0.64211   0.72326  -0.12773
C          C       0.65083   0.64911   0.68579   0.05290
C          C       0.65537   0.61829   0.65434  -0.13072
C          C       0.59906   0.58019   0.66096  -0.12899
C          C       0.71524   0.68649   0.67940   0.08036
C          C       0.69173   0.73526   0.69894  -0.14215
C          C       0.75328   0.77017   0.69237  -0.08165
C          C       0.84103   0.75711   0.66620  -0.05413
C          C       0.86567   0.70826   0.64695  -0.08465
C          C       0.80394   0.67369   0.65349  -0.13773
C          C       0.90751   0.79450   0.65752   0.58509
C          C       0.52116   0.37465   0.68358   0.05844
C          C       0.60500   0.36821   0.65371  -0.12735
C          C       0.65464   0.31340   0.64386  -0.12895
C          C       0.62246   0.26196   0.66273   0.05901
C          C       0.53571   0.26917   0.69036  -0.12842
C          C       0.48684   0.32381   0.70062  -0.14240
C          C       0.67807   0.20287   0.65472   0.07044
C          C       0.74061   0.19761   0.61592  -0.14275
C          C       0.79502   0.14219   0.60894  -0.08765
C          C       0.78893   0.08991   0.64049  -0.05118
C          C       0.72621   0.09439   0.67911  -0.08158
C          C       0.67202   0.15009   0.68608  -0.13789
C          C       0.85184   0.03179   0.63239   0.59837
C          C       0.47399   0.43108   0.69816   0.07353
C          C       0.38377   0.44036   0.72274  -0.19115
C          C       0.43228   0.13163   0.14066   0.07705
C          C       0.35901   0.18272   0.13006  -0.18495
C          C       0.30356   0.18640   0.10019   0.08246
C          C       0.32259   0.13895   0.08017  -0.18743
C          C       0.39266   0.08620   0.09166   0.06904
C          C       0.44644   0.08324   0.12220  -0.18770
C          C       0.49402   0.12972   0.17009   0.07189
C          C       0.59080   0.10237   0.16251  -0.13260
C          C       0.65051   0.10298   0.18872  -0.12718
C          C       0.61599   0.13044   0.22402   0.05986
C          C       0.51883   0.15653   0.23211  -0.12221
C          C       0.45919   0.15663   0.20560  -0.12364
C          C       0.68007   0.13259   0.25083   0.08176
C          C       0.76481   0.08787   0.25570  -0.13450
C          C       0.82716   0.09048   0.27968  -0.07846
C          C       0.80590   0.13786   0.30016  -0.05479
C          C       0.72105   0.18218   0.29620  -0.08102
C          C       0.65947   0.17983   0.27165  -0.13856
C          C       0.87265   0.13974   0.32608   0.59135
C          C       0.22150   0.23821   0.09199   0.06610
C          C       0.14922   0.24933   0.12663  -0.13167
C          C       0.06672   0.29382   0.11986  -0.12729
C          C       0.05436   0.32949   0.07841   0.05351
C          C       0.12865   0.32009   0.04412  -0.12385
C          C       0.21063   0.27454   0.05071  -0.12911
C          C       0.96379   0.37350   0.07128   0.07216
C          C       0.95787   0.42858   0.04135  -0.13522
C          C       0.87095   0.46783   0.03389  -0.08868
C          C       0.78789   0.45252   0.05575  -0.04632
C          C       0.79339   0.39833   0.08636  -0.09121
C          C       0.88003   0.35964   0.09428  -0.14166
C          C       0.69500   0.49095   0.04449   0.60137
C          C       0.40840   0.03447   0.07291   0.06939
C          C       0.33620   0.02438   0.05803  -0.14408
C          C       0.35199   0.97535   0.04042  -0.13339
C          C       0.44073   0.93423   0.03701   0.05849
C          C       0.51285   0.94426   0.05185  -0.12238
C          C       0.49698   0.99315   0.06933  -0.12408
C          C       0.45927   0.88163   0.01905   0.07687
C          C       0.41665   0.88333   0.98463  -0.14519
C          C       0.43713   0.83346   0.96743  -0.08404
C          C       0.49874   0.78006   0.98529  -0.05476
C          C       0.54082   0.77764   0.01999  -0.09201
C          C       0.52199   0.82787   0.03631  -0.14100
C          C       0.51749   0.72473   0.96986   0.60543
C          C       0.57369   0.00945   0.75916   0.07772
C          C       0.65777   0.96614   0.76751  -0.17686
C          C       0.71520   0.97325   0.79259   0.07833
C          C       0.68766   0.02499   0.80886  -0.17834
C          C       0.51566   0.00402   0.73065   0.05849
C          C       0.41746   0.02621   0.73757  -0.13352
C          C       0.36299   0.02219   0.71024  -0.13833
C          C       0.40430   0.99500   0.67513   0.05878
C          C       0.50274   0.97354   0.66774  -0.12182
C          C       0.55734   0.97829   0.69479  -0.12539
C          C       0.34557   0.98706   0.64819   0.08008
C          C       0.26129   0.02984   0.63850  -0.14549
C          C       0.20520   0.02021   0.61448  -0.08831
C          C       0.23180   0.96718   0.59985  -0.04789
C          C       0.31569   0.92444   0.60920  -0.08587
C          C       0.37181   0.93462   0.63282  -0.13483
C          C       0.17235   0.95644   0.57441   0.58449
C          C       0.80528   0.92883   0.80077   0.07044
C          C       0.86075   0.89579   0.77029  -0.13005
C          C       0.94902   0.85775   0.77687  -0.12469
C          C       0.98580   0.85081   0.81433   0.05033
C          C       0.92819   0.88173   0.84572  -0.12817
C          C       0.84038   0.91984   0.83904  -0.13186
C          C       0.08126   0.81340   0.82066   0.08448
C          C       0.12574   0.76471   0.80102  -0.14355
C          C       0.21576   0.72983   0.80734  -0.08321
C          C       0.26481   0.74284   0.83336  -0.05135
C          C       0.22170   0.79157   0.85274  -0.08443
C          C       0.13173   0.82609   0.84648  -0.14332
C          C       0.36015   0.70532   0.84170   0.58439
C          C       0.57936   0.12532   0.81639   0.06003
C          C       0.62691   0.13179   0.84629  -0.12782
C          C       0.61176   0.18663   0.85615  -0.12767
C          C       0.54696   0.23805   0.83726   0.06352
C          C       0.49499   0.23080   0.80962  -0.13112
C          C       0.51114   0.17614   0.79936  -0.14338
C          C       0.53568   0.29714   0.84522   0.06994
C          C       0.55431   0.30235   0.88405  -0.14498
C          C       0.54651   0.35774   0.89104  -0.08131
C          C       0.51969   0.41004   0.85946  -0.05205
C          C       0.50016   0.40559   0.82077  -0.08112
C          C       0.50841   0.34992   0.81381  -0.13612
C          C       0.51597   0.46820   0.86764   0.59416
C          C       0.60326   0.06890   0.80178   0.07174
C          C       0.54679   0.05961   0.77720  -0.19143
C          C       0.70466   0.36840   0.35935   0.07144
C          C       0.67199   0.31727   0.36997  -0.18349
C          C       0.59042   0.31359   0.39982   0.07905
C          C       0.54206   0.36107   0.41982  -0.18265
C          C       0.57071   0.41387   0.40833   0.06631
C          C       0.65193   0.41682   0.37777  -0.18372
C          C       0.79389   0.37030   0.32995   0.07431
C          C       0.85578   0.39764   0.33755  -0.13518
C          C       0.94223   0.39706   0.31136  -0.12455
C          C       0.97050   0.36955   0.27609   0.05877
C          C       0.90750   0.34348   0.26795  -0.12388
C          C       0.82150   0.34337   0.29443  -0.12348
C          C       0.06343   0.36747   0.24929   0.08164
C          C       0.10814   0.41227   0.24439  -0.13578
C          C       0.19682   0.40982   0.22029  -0.07800
C          C       0.24338   0.36253   0.19976  -0.05392
C          C       0.19913   0.31803   0.20379  -0.08340
C          C       0.11084   0.32028   0.22842  -0.13809
C          C       0.33762   0.36097   0.17373   0.59320
C          C       0.55193   0.26178   0.40803   0.06556
C          C       0.52537   0.25065   0.37335  -0.12977
C          C       0.48039   0.20626   0.38012  -0.12724
C          C       0.46225   0.17067   0.42156   0.05837
C          C       0.49289   0.18003   0.45589  -0.13054
C          C       0.53607   0.22549   0.44931  -0.12790
C          C       0.40874   0.12663   0.42869   0.06872
C          C       0.42821   0.07163   0.45868  -0.13685
C          C       0.37312   0.03239   0.46616  -0.08933
C          C       0.29666   0.04751   0.44427  -0.04767
C          C       0.27832   0.10163   0.41358  -0.09044
C          C       0.33400   0.14043   0.40570  -0.13802
C          C       0.23117   0.00891   0.45609   0.60076
C          C       0.51594   0.46560   0.42710   0.06946
C          C       0.41881   0.47568   0.44201  -0.13883
C          C       0.36791   0.52471   0.45961  -0.13714
C          C       0.41198   0.56591   0.46305   0.05932
C          C       0.50892   0.55586   0.44823  -0.11847
C          C       0.55950   0.50699   0.43074  -0.13011
C          C       0.35986   0.61862   0.48091   0.07550
C          C       0.28437   0.61716   0.51523  -0.14483
C          C       0.23753   0.66723   0.53221  -0.08551
C          C       0.26347   0.72069   0.51418  -0.05185
C          C       0.33798   0.72279   0.47964  -0.09070
C          C       0.38601   0.67237   0.46358  -0.14285
C          C       0.21163   0.77628   0.52938   0.60299
C          C       0.65747   0.50948   0.25924   0.07597
C          C       0.60841   0.46616   0.26756  -0.17550
C          C       0.51892   0.47326   0.29264   0.07567
C          C       0.47854   0.52496   0.30895  -0.17853
C          C       0.74934   0.50403   0.23077   0.06254
C          C       0.81842   0.52621   0.23776  -0.13561
C          C       0.90411   0.52224   0.21044  -0.13698
C          C       0.92503   0.49510   0.17529   0.06011
C          C       0.85547   0.47360   0.16786  -0.12443
C          C       0.76918   0.47830   0.19491  -0.12636
C          C       0.01850   0.48740   0.14833   0.08142
C          C       0.06942   0.53028   0.13878  -0.14969
C          C       0.15907   0.52093   0.11476  -0.08476
C          C       0.20035   0.46812   0.09987  -0.05223
C          C       0.15008   0.42528   0.10908  -0.08459
C          C       0.06033   0.43514   0.13277  -0.13782
C          C       0.29597   0.45747   0.07437   0.58763
C          C       0.46514   0.42885   0.30078   0.07008
C          C       0.47308   0.39589   0.27024  -0.12632
C          C       0.41626   0.35789   0.27674  -0.12757
C          C       0.34916   0.35089   0.31421   0.05302
C          C       0.34462   0.38171   0.34566  -0.13076
C          C       0.40093   0.41981   0.33904  -0.12915
C          C       0.28475   0.31350   0.32060   0.08012
C          C       0.30826   0.26474   0.30106  -0.14193
C          C       0.24671   0.22983   0.30763  -0.08177
C          C       0.15896   0.24289   0.33380  -0.05407
C          C       0.13432   0.29174   0.35305  -0.08430
C          C       0.19605   0.32630   0.34651  -0.13789
C          C       0.09248   0.20550   0.34248   0.58495
C          C       0.47883   0.62535   0.31642   0.05830
C          C       0.39499   0.63179   0.34629  -0.12735
C          C       0.34535   0.68660   0.35614  -0.12978
C          C       0.37753   0.73804   0.33727   0.05881
C          C       0.46428   0.73083   0.30964  -0.12857
C          C       0.51315   0.67619   0.29938  -0.14231
C          C       0.32192   0.79713   0.34528   0.07039
C          C       0.25938   0.80238   0.38408  -0.14265
C          C       0.20497   0.85781   0.39106  -0.08748
C          C       0.21106   0.91009   0.35951  -0.05139
C          C       0.27378   0.90561   0.32089  -0.08157
C          C       0.32797   0.84991   0.31392  -0.13800
C          C       0.14815   0.96821   0.36761   0.59862
C          C       0.52600   0.56892   0.30184   0.07360
C          C       0.61622   0.55964   0.27726  -0.19138
C          C       0.56771   0.86837   0.85934   0.07687
C          C       0.64098   0.81728   0.86994  -0.18481
C          C       0.69643   0.81360   0.89981   0.08244
C          C       0.67740   0.86105   0.91983  -0.18757
C          C       0.60733   0.91379   0.90834   0.06928
C          C       0.55355   0.91676   0.87780  -0.18782
C          C       0.50597   0.87028   0.82991   0.07215
C          C       0.40919   0.89763   0.83749  -0.13266
C          C       0.34948   0.89702   0.81128  -0.12697
C          C       0.38400   0.86956   0.77598   0.05987
C          C       0.48116   0.84347   0.76789  -0.12206
C          C       0.54080   0.84337   0.79440  -0.12409
C          C       0.31992   0.86741   0.74917   0.08179
C          C       0.23518   0.91213   0.74430  -0.13440
C          C       0.17283   0.90952   0.72032  -0.07847
C          C       0.19409   0.86214   0.69984  -0.05461
C          C       0.27894   0.81781   0.70380  -0.08107
C          C       0.34052   0.82017   0.72835  -0.13871
C          C       0.12734   0.86026   0.67393   0.59110
C          C       0.77849   0.76179   0.90801   0.06613
C          C       0.85077   0.75067   0.87337  -0.13158
C          C       0.93327   0.70618   0.88015  -0.12742
C          C       0.94563   0.67051   0.92160   0.05342
C          C       0.87134   0.67991   0.95588  -0.12379
C          C       0.78936   0.72546   0.94929  -0.12893
C          C       0.03620   0.62650   0.92872   0.07233
C          C       0.04212   0.57142   0.95865  -0.13506
C          C       0.12904   0.53217   0.96611  -0.08877
C          C       0.21210   0.54748   0.94425  -0.04648
C          C       0.20660   0.60167   0.91364  -0.09130
C          C       0.11996   0.64036   0.90572  -0.14169
C          C       0.30499   0.50905   0.95551   0.60184
C          C       0.59159   0.96552   0.92709   0.06927
C          C       0.66379   0.97562   0.94197  -0.14418
C          C       0.64800   0.02465   0.95958  -0.13366
C          C       0.55926   0.06577   0.96299   0.05845
C          C       0.48714   0.05574   0.94815  -0.12218
C          C       0.50301   0.00685   0.93067  -0.12386
C          C       0.54072   0.11837   0.98095   0.07684
C          C       0.58334   0.11667   0.01537  -0.14503
C          C       0.56286   0.16654   0.03258  -0.08441
C          C       0.50125   0.21994   0.01471  -0.05467
C          C       0.45917   0.22236   0.98001  -0.09215
C          C       0.47800   0.17213   0.96369  -0.14068
C          C       0.48250   0.27527   0.03014   0.60540
C          C       0.42630   0.99055   0.24084   0.07764
C          C       0.34222   0.03386   0.23249  -0.17689
C          C       0.28479   0.02675   0.20742   0.07809
C          C       0.31233   0.97501   0.19114  -0.17780
C          C       0.48433   0.99598   0.26935   0.05844
C          C       0.58253   0.97379   0.26243  -0.13346
C          C       0.63700   0.97780   0.28976  -0.13841
C          C       0.59569   0.00500   0.32487   0.05886
C          C       0.49725   0.02646   0.33226  -0.12193
C          C       0.44265   0.02171   0.30521  -0.12527
C          C       0.65442   0.01294   0.35181   0.07997
C          C       0.73870   0.97016   0.36150  -0.14519
C          C       0.79479   0.97979   0.38552  -0.08851
C          C       0.76819   0.03282   0.40015  -0.04778
C          C       0.68430   0.07556   0.39080  -0.08601
C          C       0.62818   0.06538   0.36718  -0.13449
C          C       0.82764   0.04356   0.42559   0.58454
C          C       0.19471   0.07117   0.19923   0.07050
C          C       0.13924   0.10421   0.22971  -0.12998
C          C       0.05097   0.14225   0.22313  -0.12471
C          C       0.01419   0.14919   0.18567   0.05029
C          C       0.07180   0.11826   0.15428  -0.12821
C          C       0.15961   0.08016   0.16096  -0.13180
C          C       0.91873   0.18660   0.17934   0.08473
C          C       0.87425   0.23529   0.19898  -0.14383
C          C       0.78423   0.27017   0.19266  -0.08331
C          C       0.73518   0.25716   0.16664  -0.05125
C          C       0.77829   0.20842   0.14726  -0.08432
C          C       0.86826   0.17391   0.15352  -0.14354
C          C       0.63984   0.29468   0.15830   0.58437
C          C       0.42063   0.87467   0.18361   0.06012
C          C       0.37308   0.86821   0.15371  -0.12793
C          C       0.38823   0.81337   0.14385  -0.12757
C          C       0.45303   0.76195   0.16274   0.06349
C          C       0.50500   0.76919   0.19038  -0.13111
C          C       0.48885   0.82386   0.20064  -0.14351
C          C       0.46431   0.70285   0.15478   0.07008
C          C       0.44568   0.69765   0.11595  -0.14494
C          C       0.45348   0.64225   0.10896  -0.08141
C          C       0.48030   0.58996   0.14054  -0.05214
C          C       0.49983   0.59441   0.17923  -0.08094
C          C       0.49158   0.65008   0.18620  -0.13642
C          C       0.48402   0.53180   0.13236   0.59420
C          C       0.39673   0.93110   0.19822   0.07142
C          C       0.45320   0.94039   0.22280  -0.19146
C          C       0.29533   0.63160   0.64065   0.07151
C          C       0.32800   0.68273   0.63003  -0.18357
C          C       0.40957   0.68641   0.60018   0.07882
C          C       0.45793   0.63893   0.58018  -0.18250
C          C       0.42928   0.58613   0.59167   0.06626
C          C       0.34806   0.58318   0.62223  -0.18353
C          C       0.20610   0.62970   0.67006   0.07429
C          C       0.14421   0.60236   0.66245  -0.13509
C          C       0.05776   0.60294   0.68864  -0.12438
C          C       0.02949   0.63045   0.72391   0.05884
C          C       0.09249   0.65652   0.73205  -0.12376
C          C       0.17849   0.65663   0.70557  -0.12384
C          C       0.93656   0.63253   0.75071   0.08187
C          C       0.89185   0.58772   0.75561  -0.13472
C          C       0.80317   0.59018   0.77971  -0.07769
C          C       0.75661   0.63747   0.80024  -0.05376
C          C       0.80086   0.68197   0.79621  -0.08325
C          C       0.88915   0.67972   0.77158  -0.13857
C          C       0.66237   0.63903   0.82628   0.59281
C          C       0.44805   0.73822   0.59197   0.06561
C          C       0.47462   0.74935   0.62665  -0.12965
C          C       0.51959   0.79374   0.61989  -0.12749
C          C       0.53773   0.82933   0.57844   0.05826
C          C       0.50710   0.81997   0.54411  -0.13036
C          C       0.46392   0.77451   0.55069  -0.12781
C          C       0.59125   0.87337   0.57131   0.06890
C          C       0.57178   0.92837   0.54132  -0.13707
C          C       0.62687   0.96761   0.53384  -0.08911
C          C       0.70333   0.95249   0.55573  -0.04767
C          C       0.72167   0.89837   0.58642  -0.09055
C          C       0.66598   0.85957   0.59430  -0.13798
C          C       0.76882   0.99109   0.54392   0.60089
C          C       0.48405   0.53439   0.57290   0.06947
C          C       0.58118   0.52432   0.55799  -0.13901
C          C       0.63208   0.47528   0.54039  -0.13731
C          C       0.58801   0.43409   0.53695   0.05919
C          C       0.49107   0.44413   0.55177  -0.11833
C          C       0.44049   0.49301   0.56926  -0.12987
C          C       0.64013   0.38138   0.51909   0.07559
C          C       0.71562   0.38284   0.48477  -0.14499
C          C       0.76246   0.33276   0.46779  -0.08580
C          C       0.73652   0.27931   0.48582  -0.05181
C          C       0.66201   0.27721   0.52036  -0.09058
C          C       0.61398   0.32762   0.53643  -0.14272
C          C       0.78836   0.22372   0.47063   0.60290
O          O       0.48556   0.55908   0.00167  -0.86213
O          O       0.91573   0.03322   0.59975  -0.57460
O          O       0.83906   0.98339   0.65956  -0.55054
O          O       0.66511   0.49988   0.93944  -0.55307
O          O       0.66556   0.59514   0.93328  -0.59296
O          O       0.87904   0.84151   0.67319  -0.57017
O          O       0.98663   0.77780   0.63445  -0.55410
O          O       0.99109   0.89967   0.59103  -0.87660
O          O       0.95123   0.09975   0.32517  -0.55482
O          O       0.84779   0.18080   0.34732  -0.54742
O          O       0.68817   0.54662   0.02806  -0.54657
O          O       0.62965   0.46587   0.05067  -0.58958
O          O       0.49482   0.72938   0.93342  -0.55180
O          O       0.55355   0.67673   0.99564  -0.54902
O          O       0.04477   0.94108   0.49881  -0.86168
O          O       0.54810   0.46675   0.90048  -0.57174
O          O       0.48221   0.51660   0.84034  -0.54884
O          O       0.10613  -0.00037   0.55961  -0.55587
O          O       0.19236   0.90344   0.56762  -0.58887
O          O       0.39330   0.65810   0.82622  -0.56754
O          O       0.40068   0.72208   0.86427  -0.55624
O          O       0.48219   0.60064   0.90899  -0.87640
O          O       0.37470   0.40170   0.17383  -0.55327
O          O       0.37542   0.31918   0.15316  -0.55007
O          O       0.26320   0.95386   0.47435  -0.54561
O          O       0.14765   0.03326   0.44858  -0.59053
O          O       0.15940   0.77166   0.56629  -0.54988
O          O       0.22327   0.82445   0.50305  -0.54924
O          O       0.51443   0.44091   0.99833  -0.86190
O          O       0.08426   0.96678   0.40025  -0.57428
O          O       0.16093   0.01661   0.34044  -0.55100
O          O       0.33488   0.50011   0.06057  -0.55352
O          O       0.33443   0.40486   0.06672  -0.59278
O          O       0.12095   0.15849   0.32681  -0.57015
O          O       0.01336   0.22220   0.36555  -0.55396
O          O       0.00890   0.10032   0.40897  -0.87640
O          O       0.04876   0.90025   0.67483  -0.55467
O          O       0.15220   0.81920   0.65268  -0.54737
O          O       0.31182   0.45338   0.97195  -0.54634
O          O       0.37034   0.53413   0.94933  -0.59010
O          O       0.50517   0.27062   0.06658  -0.55198
O          O       0.44644   0.32327   0.00436  -0.54887
O          O       0.95522   0.05892   0.50119  -0.86144
O          O       0.45189   0.53325   0.09952  -0.57156
O          O       0.51778   0.48340   0.15966  -0.54898
O          O       0.89386   0.00037   0.44039  -0.55586
O          O       0.80763   0.09655   0.43238  -0.58887
O          O       0.60669   0.34190   0.17378  -0.56786
O          O       0.59931   0.27791   0.13573  -0.55589
O          O       0.51780   0.39936   0.09101  -0.87599
O          O       0.62529   0.59830   0.82618  -0.55274
O          O       0.62457   0.68082   0.84684  -0.55016
O          O       0.73679   0.04614   0.52565  -0.54547
O          O       0.85234   0.96673   0.55142  -0.59090
O          O       0.84059   0.22834   0.43371  -0.55014
O          O       0.77672   0.17555   0.49696  -0.54897

