data_crystal

_audit_creation_method 'AiiDA-DDEC plugin'

_cell_length_a        33.00295
_cell_length_b        33.00043
_cell_length_c        33.00045

_cell_angle_alpha     60.00422
_cell_angle_beta     59.98200
_cell_angle_gamma     59.98198

_symmetry_space_group_name_Hall 'P 1'
_symmetry_space_group_name_H-M  'P 1'

loop_
_symmetry_equiv_pos_as_xyz
 'x,y,z'

loop_
_atom_site_label
_atom_site_type_symbol
_atom_site_fract_x
_atom_site_fract_y
_atom_site_fract_z
_atom_site_charge
Zn         Zn      0.02452   0.84386   0.47475   0.64744
Zn         Zn      0.84398   0.02459   0.65682   0.64677
Zn         Zn      0.65691   0.47466   0.84409   0.64762
Zn         Zn      0.47462   0.65685   0.02460   0.64675
Zn         Zn      0.65686   0.02459   0.47463   0.64692
Zn         Zn      0.47465   0.84408   0.65694   0.64748
Zn         Zn      0.02457   0.65686   0.84398   0.64689
Zn         Zn      0.84386   0.47474   0.02451   0.64739
Zn         Zn      0.84406   0.65693   0.47467   0.64786
Zn         Zn      0.02459   0.47463   0.65686   0.64673
Zn         Zn      0.47476   0.02451   0.84384   0.64745
Zn         Zn      0.65685   0.84397   0.02457   0.64684
Zn         Zn      0.97543   0.15602   0.34315   0.64700
Zn         Zn      0.15614   0.97550   0.52526   0.64735
Zn         Zn      0.34313   0.52538   0.97541   0.64684
Zn         Zn      0.52535   0.34306   0.15592   0.64758
Zn         Zn      0.34315   0.97543   0.15603   0.64693
Zn         Zn      0.52523   0.15616   0.97549   0.64745
Zn         Zn      0.97540   0.34315   0.52537   0.64671
Zn         Zn      0.15593   0.52533   0.34308   0.64764
Zn         Zn      0.15601   0.34318   0.97541   0.64679
Zn         Zn      0.97548   0.52525   0.15614   0.64740
Zn         Zn      0.52537   0.97540   0.34315   0.64672
Zn         Zn      0.34308   0.15592   0.52535   0.64763
Zn         Zn      0.97548   0.15614   0.52525   0.64741
Zn         Zn      0.15601   0.97541   0.34318   0.64669
Zn         Zn      0.34308   0.52535   0.15591   0.64762
Zn         Zn      0.52537   0.34315   0.97540   0.64673
Zn         Zn      0.34313   0.97541   0.52537   0.64685
Zn         Zn      0.52535   0.15592   0.34306   0.64763
Zn         Zn      0.97543   0.34315   0.15602   0.64695
Zn         Zn      0.15613   0.52526   0.97549   0.64728
Zn         Zn      0.15593   0.34308   0.52533   0.64765
Zn         Zn      0.97541   0.52537   0.34315   0.64675
Zn         Zn      0.52524   0.97549   0.15616   0.64750
Zn         Zn      0.34315   0.15603   0.97543   0.64699
Zn         Zn      0.02457   0.84398   0.65686   0.64697
Zn         Zn      0.84386   0.02451   0.47474   0.64746
Zn         Zn      0.65686   0.47463   0.02459   0.64686
Zn         Zn      0.47465   0.65694   0.84408   0.64758
Zn         Zn      0.65684   0.02458   0.84397   0.64681
Zn         Zn      0.47476   0.84384   0.02451   0.64748
Zn         Zn      0.02459   0.65686   0.47463   0.64676
Zn         Zn      0.84406   0.47467   0.65692   0.64770
Zn         Zn      0.84399   0.65682   0.02459   0.64671
Zn         Zn      0.02451   0.47476   0.84386   0.64740
Zn         Zn      0.47462   0.02460   0.65685   0.64673
Zn         Zn      0.65692   0.84409   0.47466   0.64756
H          H       0.94370   0.79093   0.57059   0.11534
H          H       0.86110   0.78647   0.63407   0.09332
H          H       0.00935   0.88270   0.37113   0.11853
H          H       0.02196   0.92536   0.28042   0.10198
H          H       0.11997   0.74121   0.49310   0.11034
H          H       0.18346   0.67567   0.53309   0.09928
H          H       0.12595   0.81456   0.39753   0.11453
H          H       0.20129   0.76146   0.34968   0.09506
H          H       0.79107   0.94400   0.69464   0.11660
H          H       0.78667   0.86137   0.71813   0.09532
H          H       0.88272   0.00904   0.73673   0.12130
H          H       0.92513   0.02177   0.77233   0.10169
H          H       0.74153   0.12038   0.64549   0.11022
H          H       0.67578   0.18360   0.60779   0.09993
H          H       0.81476   0.12586   0.66196   0.11458
H          H       0.76157   0.20119   0.68754   0.09503
H          H       0.69465   0.57030   0.79101   0.11626
H          H       0.71823   0.63383   0.78655   0.09324
H          H       0.73690   0.37104   0.88318   0.12071
H          H       0.77250   0.28029   0.92546   0.10223
H          H       0.64569   0.49285   0.74166   0.11007
H          H       0.60775   0.53291   0.67612   0.10151
H          H       0.66211   0.39755   0.81498   0.11424
H          H       0.68757   0.35000   0.76166   0.09485
H          H       0.57035   0.69477   0.94382   0.11589
H          H       0.63387   0.71834   0.86116   0.09341
H          H       0.37102   0.73706   0.00941   0.12122
H          H       0.28036   0.77257   0.02182   0.10250
H          H       0.49282   0.64568   0.12006   0.11071
H          H       0.53303   0.60787   0.18332   0.10009
H          H       0.39708   0.66214   0.12574   0.11424
H          H       0.34955   0.68751   0.20121   0.09525
H          H       0.69474   0.94380   0.57041   0.11602
H          H       0.71832   0.86116   0.63389   0.09348
H          H       0.73709   0.00941   0.37100   0.11897
H          H       0.77259   0.02182   0.28035   0.10231
H          H       0.64566   0.11998   0.49284   0.11071
H          H       0.60785   0.18329   0.53305   0.10002
H          H       0.66212   0.12577   0.39708   0.11437
H          H       0.68749   0.20120   0.34957   0.09533
H          H       0.57032   0.79102   0.69462   0.11615
H          H       0.63385   0.78655   0.71821   0.09294
H          H       0.37108   0.88319   0.73685   0.12055
H          H       0.28030   0.92546   0.77249   0.10254
H          H       0.49282   0.74177   0.64566   0.11055
H          H       0.53290   0.67617   0.60774   0.09973
H          H       0.39752   0.81497   0.66213   0.11402
H          H       0.35000   0.76167   0.68757   0.09483
H          H       0.94399   0.69461   0.79110   0.11606
H          H       0.86136   0.71811   0.78669   0.09337
H          H       0.00901   0.73673   0.88275   0.12108
H          H       0.02175   0.77234   0.92515   0.10218
H          H       0.12030   0.64548   0.74163   0.11038
H          H       0.18356   0.60778   0.67583   0.09991
H          H       0.12587   0.66198   0.81474   0.11454
H          H       0.20118   0.68754   0.76157   0.09481
H          H       0.79089   0.57066   0.94368   0.11604
H          H       0.78645   0.63410   0.86110   0.09367
H          H       0.88267   0.37115   0.00938   0.12103
H          H       0.92534   0.28042   0.02198   0.10214
H          H       0.74128   0.49309   0.11992   0.11058
H          H       0.67569   0.53309   0.18344   0.09962
H          H       0.81457   0.39749   0.12599   0.11420
H          H       0.76148   0.34968   0.20128   0.09504
H          H       0.79101   0.69465   0.57032   0.11633
H          H       0.78653   0.71823   0.63386   0.09337
H          H       0.88314   0.73693   0.37108   0.12100
H          H       0.92542   0.77250   0.28032   0.10277
H          H       0.74170   0.64565   0.49287   0.11058
H          H       0.67613   0.60774   0.53293   0.10187
H          H       0.81502   0.66211   0.39747   0.11417
H          H       0.76169   0.68755   0.34997   0.09485
H          H       0.94381   0.57035   0.69475   0.11577
H          H       0.86114   0.63389   0.71834   0.09358
H          H       0.00936   0.37102   0.73711   0.12130
H          H       0.02181   0.28038   0.77258   0.10259
H          H       0.12000   0.49286   0.64565   0.11081
H          H       0.18328   0.53306   0.60785   0.09995
H          H       0.12578   0.39702   0.66213   0.11412
H          H       0.20122   0.34954   0.68748   0.09510
H          H       0.57061   0.94367   0.79095   0.11561
H          H       0.63410   0.86108   0.78647   0.09310
H          H       0.37118   0.00934   0.88266   0.12063
H          H       0.28045   0.02197   0.92533   0.10199
H          H       0.49308   0.11997   0.74125   0.11045
H          H       0.53309   0.18344   0.67569   0.09958
H          H       0.39745   0.12604   0.81459   0.11442
H          H       0.34965   0.20132   0.76148   0.09520
H          H       0.69462   0.79112   0.94397   0.11622
H          H       0.71812   0.78668   0.86134   0.09281
H          H       0.73676   0.88271   0.00900   0.12101
H          H       0.77234   0.92512   0.02176   0.10167
H          H       0.64548   0.74156   0.12035   0.11015
H          H       0.60778   0.67581   0.18356   0.09954
H          H       0.66193   0.81477   0.12594   0.11465
H          H       0.68751   0.76160   0.20121   0.09529
H          H       0.05600   0.20890   0.30540   0.11637
H          H       0.13863   0.21332   0.28189   0.09343
H          H       0.99099   0.11726   0.26328   0.12095
H          H       0.97824   0.07486   0.22766   0.10182
H          H       0.87969   0.25837   0.35453   0.11017
H          H       0.81643   0.32417   0.39223   0.10004
H          H       0.87413   0.18526   0.33802   0.11468
H          H       0.79881   0.23843   0.31247   0.09519
H          H       0.20910   0.05632   0.42935   0.11571
H          H       0.21354   0.13890   0.36590   0.09330
H          H       0.11733   0.99063   0.62886   0.12098
H          H       0.07465   0.97803   0.71958   0.10231
H          H       0.25871   0.88008   0.50691   0.11060
H          H       0.32431   0.81656   0.46691   0.09947
H          H       0.18542   0.87402   0.60251   0.11431
H          H       0.23852   0.79872   0.65032   0.09500
H          H       0.30525   0.42960   0.05620   0.11583
H          H       0.28167   0.36611   0.13885   0.09348
H          H       0.26291   0.62901   0.99059   0.12101
H          H       0.22741   0.71966   0.97818   0.10267
H          H       0.35433   0.50717   0.88002   0.11102
H          H       0.39215   0.46695   0.81672   0.10005
H          H       0.33787   0.60293   0.87423   0.11425
H          H       0.31251   0.65043   0.79881   0.09526
H          H       0.42967   0.30538   0.20898   0.11636
H          H       0.36615   0.28179   0.21345   0.09320
H          H       0.62891   0.26315   0.11682   0.12070
H          H       0.71969   0.22751   0.07454   0.10248
H          H       0.50717   0.35434   0.25823   0.11048
H          H       0.46710   0.39226   0.32384   0.09974
H          H       0.60247   0.33787   0.18503   0.11397
H          H       0.65000   0.31244   0.23834   0.09483
H          H       0.30538   0.05603   0.20888   0.11626
H          H       0.28187   0.13867   0.21332   0.09313
H          H       0.26324   0.99100   0.11729   0.12119
H          H       0.22766   0.97824   0.07488   0.10189
H          H       0.35452   0.87965   0.25844   0.11024
H          H       0.39221   0.81644   0.32419   0.09964
H          H       0.33806   0.87407   0.18523   0.11444
H          H       0.31249   0.79879   0.23841   0.09500
H          H       0.42939   0.20905   0.05633   0.11557
H          H       0.36589   0.21354   0.13893   0.09346
H          H       0.62881   0.11734   0.99066   0.12111
H          H       0.71954   0.07468   0.97803   0.10206
H          H       0.50691   0.25876   0.88004   0.11031
H          H       0.46691   0.32431   0.81656   0.09950
H          H       0.60254   0.18542   0.87396   0.11414
H          H       0.65035   0.23852   0.79868   0.09490
H          H       0.05618   0.30526   0.42965   0.11589
H          H       0.13885   0.28167   0.36612   0.09334
H          H       0.99063   0.26289   0.62898   0.12091
H          H       0.97818   0.22742   0.71962   0.10229
H          H       0.87999   0.35436   0.50715   0.11089
H          H       0.81671   0.39215   0.46694   0.10012
H          H       0.87421   0.33787   0.60298   0.11450
H          H       0.79877   0.31252   0.65046   0.09544
H          H       0.20899   0.42969   0.30536   0.11618
H          H       0.21346   0.36614   0.28177   0.09310
H          H       0.11685   0.62892   0.26308   0.12073
H          H       0.07457   0.71968   0.22750   0.10256
H          H       0.25829   0.50714   0.35435   0.11053
H          H       0.32387   0.46707   0.39226   0.10174
H          H       0.18498   0.60254   0.33789   0.11447
H          H       0.23830   0.65003   0.31245   0.09502
H          H       0.20893   0.30536   0.05601   0.11632
H          H       0.21333   0.28187   0.13864   0.09510
H          H       0.11728   0.26328   0.99097   0.12106
H          H       0.07486   0.22768   0.97823   0.10152
H          H       0.25847   0.35451   0.87963   0.11000
H          H       0.32422   0.39221   0.81641   0.09951
H          H       0.18524   0.33804   0.87414   0.11484
H          H       0.23842   0.31246   0.79881   0.09496
H          H       0.05629   0.42941   0.20908   0.11578
H          H       0.13889   0.36593   0.21353   0.09336
H          H       0.99065   0.62887   0.11730   0.11849
H          H       0.97803   0.71958   0.07465   0.10199
H          H       0.88003   0.50691   0.25880   0.11046
H          H       0.81653   0.46692   0.32433   0.09954
H          H       0.87405   0.60247   0.18544   0.11444
H          H       0.79871   0.65033   0.23855   0.09524
H          H       0.42964   0.05619   0.30523   0.11578
H          H       0.36613   0.13884   0.28166   0.09351
H          H       0.62898   0.99059   0.26294   0.12126
H          H       0.71963   0.97818   0.22743   0.10252
H          H       0.50718   0.87995   0.35432   0.11055
H          H       0.46697   0.81668   0.39213   0.09980
H          H       0.60291   0.87426   0.33786   0.11428
H          H       0.65044   0.79879   0.31249   0.09512
H          H       0.30535   0.20900   0.42970   0.11635
H          H       0.28177   0.21346   0.36617   0.09320
H          H       0.26309   0.11682   0.62896   0.12080
H          H       0.22750   0.07455   0.71971   0.10274
H          H       0.35430   0.25835   0.50715   0.11038
H          H       0.39224   0.32389   0.46709   0.10197
H          H       0.33789   0.18502   0.60246   0.11384
H          H       0.31243   0.23835   0.65001   0.09482
H          H       0.05629   0.20908   0.42941   0.11585
H          H       0.13889   0.21353   0.36593   0.09344
H          H       0.99065   0.11731   0.62887   0.11857
H          H       0.97803   0.07465   0.71958   0.10202
H          H       0.88003   0.25880   0.50691   0.11050
H          H       0.81653   0.32434   0.46692   0.09962
H          H       0.87404   0.18544   0.60247   0.11436
H          H       0.79870   0.23855   0.65033   0.09520
H          H       0.20893   0.05601   0.30536   0.11622
H          H       0.21333   0.13864   0.28187   0.09513
H          H       0.11728   0.99097   0.26327   0.12127
H          H       0.07487   0.97824   0.22767   0.10174
H          H       0.25847   0.87963   0.35451   0.11017
H          H       0.32422   0.81641   0.39221   0.09963
H          H       0.18524   0.87414   0.33804   0.11470
H          H       0.23842   0.79882   0.31246   0.09484
H          H       0.30535   0.42971   0.20899   0.11629
H          H       0.28177   0.36617   0.21345   0.09313
H          H       0.26309   0.62896   0.11682   0.12074
H          H       0.22750   0.71971   0.07454   0.10266
H          H       0.35430   0.50715   0.25834   0.11033
H          H       0.39224   0.46709   0.32388   0.10188
H          H       0.33789   0.60246   0.18502   0.11393
H          H       0.31243   0.65001   0.23834   0.09489
H          H       0.42964   0.30523   0.05619   0.11588
H          H       0.36613   0.28166   0.13884   0.09348
H          H       0.62898   0.26294   0.99059   0.12107
H          H       0.71963   0.22743   0.97818   0.10228
H          H       0.50718   0.35432   0.87995   0.11042
H          H       0.46697   0.39214   0.81668   0.09977
H          H       0.60291   0.33786   0.87426   0.11439
H          H       0.65044   0.31249   0.79879   0.09528
H          H       0.30525   0.05620   0.42960   0.11579
H          H       0.28167   0.13885   0.36611   0.09349
H          H       0.26291   0.99059   0.62900   0.12117
H          H       0.22741   0.97818   0.71965   0.10258
H          H       0.35433   0.88003   0.50716   0.11091
H          H       0.39215   0.81672   0.46695   0.09993
H          H       0.33787   0.87423   0.60293   0.11423
H          H       0.31251   0.79881   0.65043   0.09513
H          H       0.42967   0.20899   0.30538   0.11641
H          H       0.36615   0.21345   0.28179   0.09334
H          H       0.62891   0.11682   0.26315   0.12075
H          H       0.71969   0.07454   0.22751   0.10251
H          H       0.50717   0.25824   0.35434   0.11048
H          H       0.46710   0.32384   0.39226   0.09981
H          H       0.60247   0.18503   0.33787   0.11389
H          H       0.65000   0.23834   0.31243   0.09476
H          H       0.05600   0.30540   0.20890   0.11632
H          H       0.13863   0.28189   0.21331   0.09338
H          H       0.99099   0.26328   0.11726   0.12093
H          H       0.97824   0.22766   0.07486   0.10179
H          H       0.87969   0.35453   0.25837   0.11014
H          H       0.81643   0.39223   0.32417   0.10001
H          H       0.87413   0.33802   0.18526   0.11473
H          H       0.79881   0.31247   0.23843   0.09526
H          H       0.20910   0.42935   0.05632   0.11584
H          H       0.21355   0.36590   0.13890   0.09329
H          H       0.11732   0.62886   0.99063   0.12081
H          H       0.07465   0.71959   0.97802   0.10229
H          H       0.25871   0.50692   0.88008   0.11072
H          H       0.32431   0.46691   0.81656   0.09952
H          H       0.18542   0.60251   0.87401   0.11432
H          H       0.23852   0.65032   0.79872   0.09513
H          H       0.20899   0.30536   0.42968   0.11620
H          H       0.21346   0.28177   0.36614   0.09312
H          H       0.11685   0.26308   0.62892   0.12066
H          H       0.07457   0.22750   0.71968   0.10233
H          H       0.25829   0.35435   0.50713   0.11042
H          H       0.32387   0.39226   0.46707   0.10165
H          H       0.18498   0.33790   0.60253   0.11461
H          H       0.23830   0.31246   0.65003   0.09510
H          H       0.05618   0.42965   0.30526   0.11585
H          H       0.13885   0.36612   0.28166   0.09337
H          H       0.99063   0.62898   0.26289   0.12098
H          H       0.97818   0.71962   0.22742   0.10244
H          H       0.87999   0.50715   0.35435   0.11100
H          H       0.81671   0.46694   0.39215   0.10021
H          H       0.87421   0.60298   0.33787   0.11434
H          H       0.79877   0.65047   0.31252   0.09538
H          H       0.42939   0.05633   0.20905   0.11551
H          H       0.36589   0.13893   0.21354   0.09346
H          H       0.62881   0.99067   0.11734   0.12089
H          H       0.71955   0.97803   0.07467   0.10205
H          H       0.50691   0.88004   0.25875   0.11030
H          H       0.46691   0.81657   0.32431   0.09937
H          H       0.60254   0.87396   0.18542   0.11429
H          H       0.65035   0.79868   0.23852   0.09488
H          H       0.30538   0.20888   0.05603   0.11631
H          H       0.28187   0.21332   0.13867   0.09320
H          H       0.26324   0.11729   0.99100   0.12138
H          H       0.22766   0.07489   0.97824   0.10210
H          H       0.35452   0.25844   0.87965   0.11030
H          H       0.39221   0.32419   0.81644   0.09984
H          H       0.33806   0.18523   0.87407   0.11428
H          H       0.31249   0.23841   0.79879   0.09491
H          H       0.94399   0.79111   0.69460   0.11599
H          H       0.86136   0.78669   0.71811   0.09317
H          H       0.00901   0.88275   0.73672   0.12098
H          H       0.02175   0.92515   0.77234   0.10186
H          H       0.12030   0.74163   0.64547   0.11031
H          H       0.18356   0.67584   0.60778   0.09986
H          H       0.12587   0.81474   0.66198   0.11472
H          H       0.20118   0.76158   0.68753   0.09499
H          H       0.79089   0.94368   0.57065   0.11607
H          H       0.78645   0.86111   0.63410   0.09349
H          H       0.88267   0.00938   0.37114   0.11880
H          H       0.92534   0.02198   0.28042   0.10210
H          H       0.74128   0.11992   0.49309   0.11058
H          H       0.67569   0.18344   0.53309   0.09974
H          H       0.81457   0.12599   0.39749   0.11418
H          H       0.76147   0.20128   0.34968   0.09504
H          H       0.69474   0.57041   0.94380   0.11598
H          H       0.71832   0.63389   0.86116   0.09361
H          H       0.73709   0.37100   0.00941   0.12097
H          H       0.77259   0.28035   0.02182   0.10231
H          H       0.64566   0.49284   0.11998   0.11074
H          H       0.60785   0.53305   0.18329   0.09995
H          H       0.66212   0.39708   0.12577   0.11437
H          H       0.68749   0.34957   0.20119   0.09531
H          H       0.57032   0.69462   0.79102   0.11626
H          H       0.63385   0.71821   0.78655   0.09310
H          H       0.37108   0.73686   0.88318   0.12078
H          H       0.28030   0.77249   0.92546   0.10278
H          H       0.49282   0.64567   0.74177   0.11059
H          H       0.53290   0.60774   0.67616   0.09988
H          H       0.39752   0.66213   0.81497   0.11375
H          H       0.35000   0.68757   0.76166   0.09482
H          H       0.69462   0.94397   0.79112   0.11640
H          H       0.71812   0.86134   0.78668   0.09290
H          H       0.73676   0.00900   0.88271   0.12085
H          H       0.77234   0.02176   0.92512   0.10156
H          H       0.64548   0.12035   0.74156   0.11019
H          H       0.60778   0.18356   0.67581   0.09968
H          H       0.66193   0.12594   0.81477   0.11472
H          H       0.68750   0.20122   0.76160   0.09540
H          H       0.57061   0.79095   0.94367   0.11539
H          H       0.63410   0.78647   0.86107   0.09300
H          H       0.37119   0.88266   0.00934   0.12077
H          H       0.28045   0.92533   0.02197   0.10211
H          H       0.49308   0.74125   0.11996   0.11046
H          H       0.53309   0.67569   0.18344   0.09948
H          H       0.39745   0.81459   0.12604   0.11433
H          H       0.34965   0.76149   0.20132   0.09506
H          H       0.94381   0.69475   0.57035   0.11571
H          H       0.86114   0.71834   0.63388   0.09352
H          H       0.00936   0.73711   0.37102   0.12128
H          H       0.02181   0.77258   0.28038   0.10265
H          H       0.12000   0.64565   0.49286   0.11094
H          H       0.18328   0.60785   0.53306   0.10004
H          H       0.12579   0.66213   0.39702   0.11412
H          H       0.20122   0.68748   0.34954   0.09511
H          H       0.79101   0.57032   0.69464   0.11634
H          H       0.78653   0.63386   0.71823   0.09346
H          H       0.88314   0.37108   0.73692   0.12111
H          H       0.92542   0.28033   0.77250   0.10269
H          H       0.74170   0.49287   0.64565   0.11046
H          H       0.67613   0.53293   0.60774   0.10174
H          H       0.81502   0.39747   0.66211   0.11417
H          H       0.76169   0.34997   0.68755   0.09478
H          H       0.79107   0.69465   0.94399   0.11650
H          H       0.78667   0.71813   0.86137   0.09534
H          H       0.88272   0.73673   0.00904   0.12133
H          H       0.92513   0.77233   0.02177   0.10174
H          H       0.74153   0.64549   0.12037   0.11023
H          H       0.67578   0.60779   0.18359   0.09989
H          H       0.81476   0.66196   0.12586   0.11452
H          H       0.76157   0.68754   0.20119   0.09483
H          H       0.94370   0.57059   0.79092   0.11549
H          H       0.86110   0.63407   0.78647   0.09348
H          H       0.00935   0.37114   0.88270   0.11865
H          H       0.02196   0.28043   0.92536   0.10190
H          H       0.11997   0.49310   0.74121   0.11028
H          H       0.18346   0.53309   0.67567   0.09925
H          H       0.12595   0.39753   0.81456   0.11449
H          H       0.20129   0.34968   0.76145   0.09498
H          H       0.57035   0.94382   0.69477   0.11600
H          H       0.63387   0.86116   0.71834   0.09337
H          H       0.37102   0.00941   0.73706   0.12110
H          H       0.28036   0.02183   0.77257   0.10244
H          H       0.49282   0.12006   0.64568   0.11076
H          H       0.53303   0.18332   0.60787   0.10019
H          H       0.39708   0.12574   0.66214   0.11424
H          H       0.34955   0.20121   0.68751   0.09540
H          H       0.69465   0.79101   0.57030   0.11615
H          H       0.71823   0.78655   0.63383   0.09305
H          H       0.73690   0.88318   0.37104   0.12056
H          H       0.77250   0.92546   0.28029   0.10237
H          H       0.64569   0.74166   0.49285   0.11014
H          H       0.60775   0.67612   0.53291   0.10158
H          H       0.66211   0.81498   0.39755   0.11427
H          H       0.68757   0.76166   0.34999   0.09494
H          H       0.95487   0.95483   0.43836   0.09172
H          H       0.95505   0.95509   0.65185   0.09208
H          H       0.65184   0.43808   0.95510   0.09191
H          H       0.43804   0.65184   0.95515   0.09221
H          H       0.65184   0.95510   0.43807   0.09208
H          H       0.43804   0.95515   0.65184   0.09229
H          H       0.95505   0.65185   0.95508   0.09194
H          H       0.95487   0.43837   0.95483   0.09150
H          H       0.95515   0.65183   0.43800   0.09195
H          H       0.95515   0.43801   0.65183   0.09182
H          H       0.43829   0.95491   0.95490   0.09221
H          H       0.65183   0.95511   0.95510   0.09218
H          H       0.04494   0.04492   0.34815   0.09200
H          H       0.04513   0.04517   0.56164   0.09171
H          H       0.34815   0.56193   0.04490   0.09197
H          H       0.56195   0.34816   0.04486   0.09205
H          H       0.34816   0.04490   0.04490   0.09182
H          H       0.56171   0.04510   0.04510   0.09180
H          H       0.04484   0.34817   0.56200   0.09223
H          H       0.04484   0.56200   0.34817   0.09226
H          H       0.04494   0.34815   0.04492   0.09202
H          H       0.04513   0.56164   0.04517   0.09176
H          H       0.56195   0.04486   0.34816   0.09201
H          H       0.34815   0.04490   0.56193   0.09188
H          H       0.09965   0.90026   0.44382   0.09446
H          H       0.90035   0.09975   0.55618   0.09455
H          H       0.55649   0.44354   0.90044   0.09458
H          H       0.44351   0.55647   0.09956   0.09436
H          H       0.55641   0.09957   0.44355   0.09464
H          H       0.44358   0.90044   0.55646   0.09437
H          H       0.09974   0.55615   0.90035   0.09409
H          H       0.90026   0.44386   0.09965   0.09441
H          H       0.90046   0.55654   0.44351   0.09424
H          H       0.09954   0.44347   0.55649   0.09431
H          H       0.44383   0.09964   0.90026   0.09431
H          H       0.55617   0.90037   0.09974   0.09430
H          H       0.90025   0.09965   0.44386   0.09444
H          H       0.09974   0.90036   0.55615   0.09421
H          H       0.44358   0.55646   0.90044   0.09424
H          H       0.55641   0.44355   0.09956   0.09458
H          H       0.44383   0.90026   0.09963   0.09423
H          H       0.55617   0.09974   0.90037   0.09432
H          H       0.90046   0.44352   0.55654   0.09438
H          H       0.09954   0.55649   0.44346   0.09419
H          H       0.09965   0.44382   0.90026   0.09460
H          H       0.90035   0.55618   0.09975   0.09451
H          H       0.55649   0.90045   0.44354   0.09447
H          H       0.44351   0.09956   0.55647   0.09439
H          H       0.99235   0.87730   0.56527   0.09120
H          H       0.87729   0.99236   0.56522   0.09072
H          H       0.56538   0.56544   0.87735   0.09087
H          H       0.56524   0.56522   0.99222   0.09095
H          H       0.56524   0.99222   0.56522   0.09089
H          H       0.56538   0.87735   0.56544   0.09092
H          H       0.99235   0.56528   0.87730   0.09110
H          H       0.87729   0.56522   0.99236   0.09093
H          H       0.87735   0.56541   0.56540   0.09067
H          H       0.99222   0.56523   0.56523   0.09084
H          H       0.56523   0.99243   0.87725   0.09082
H          H       0.56523   0.87725   0.99243   0.09094
H          H       0.00765   0.12271   0.43473   0.09086
H          H       0.12270   0.00764   0.43478   0.09119
H          H       0.43475   0.43479   0.00778   0.09101
H          H       0.43461   0.43456   0.12265   0.09079
H          H       0.43477   0.00757   0.12275   0.09093
H          H       0.43476   0.12275   0.00757   0.09080
H          H       0.00777   0.43478   0.43477   0.09065
H          H       0.12265   0.43460   0.43460   0.09082
H          H       0.12270   0.43479   0.00764   0.09119
H          H       0.00765   0.43473   0.12271   0.09096
H          H       0.43475   0.00778   0.43478   0.09103
H          H       0.43461   0.12265   0.43456   0.09071
H          H       0.97472   0.76235   0.50054   0.08839
H          H       0.76236   0.97478   0.76230   0.08819
H          H       0.76264   0.50047   0.76269   0.08770
H          H       0.50053   0.76229   0.97476   0.08847
H          H       0.76230   0.97479   0.50053   0.08804
H          H       0.50048   0.76266   0.76266   0.08766
H          H       0.97474   0.76234   0.76234   0.08858
H          H       0.76230   0.50053   0.97479   0.08820
H          H       0.76264   0.76270   0.50047   0.08766
H          H       0.97472   0.50055   0.76234   0.08857
H          H       0.50053   0.97476   0.76229   0.08828
H          H       0.76236   0.76231   0.97478   0.08837
H          H       0.02525   0.23766   0.23766   0.08836
H          H       0.23770   0.02521   0.49947   0.08836
H          H       0.23770   0.49947   0.02521   0.08815
H          H       0.49951   0.23734   0.23734   0.08771
H          H       0.23763   0.02522   0.23770   0.08845
H          H       0.49946   0.23772   0.02524   0.08846
H          H       0.02528   0.23766   0.49946   0.08822
H          H       0.23736   0.49953   0.23731   0.08756
H          H       0.23763   0.23770   0.02522   0.08842
H          H       0.02528   0.49946   0.23766   0.08825
H          H       0.49946   0.02525   0.23772   0.08856
H          H       0.23735   0.23731   0.49953   0.08758
C          C       0.91273   0.86970   0.53327   0.13443
C          C       0.91051   0.82360   0.56967  -0.17783
C          C       0.86430   0.82160   0.60522  -0.09718
C          C       0.05681   0.91284   0.36765   0.12760
C          C       0.03243   0.90623   0.34788  -0.17435
C          C       0.03970   0.93024   0.29724  -0.09556
C          C       0.08464   0.77895   0.54675   0.13049
C          C       0.11993   0.74159   0.52584  -0.17329
C          C       0.15529   0.70501   0.54855  -0.09888
C          C       0.08360   0.76738   0.42446   0.12743
C          C       0.12577   0.78188   0.39728  -0.17182
C          C       0.16755   0.75206   0.37075  -0.09818
C          C       0.86988   0.91295   0.68419   0.13411
C          C       0.82375   0.91077   0.69607  -0.17884
C          C       0.82180   0.86455   0.70869  -0.09805
C          C       0.91280   0.05674   0.66267   0.12751
C          C       0.90615   0.03224   0.71344  -0.17697
C          C       0.93006   0.03951   0.73291  -0.09483
C          C       0.77901   0.08473   0.58970   0.12958
C          C       0.74176   0.12013   0.61258  -0.17280
C          C       0.70508   0.15538   0.59120  -0.09949
C          C       0.76741   0.08361   0.72448   0.12874
C          C       0.78200   0.12571   0.69501  -0.17266
C          C       0.75214   0.16749   0.70957  -0.09879
C          C       0.68423   0.53301   0.86985   0.13417
C          C       0.69611   0.56940   0.82369  -0.17895
C          C       0.70878   0.60497   0.82168  -0.09659
C          C       0.66288   0.36748   0.91303   0.12726
C          C       0.71361   0.34774   0.90650  -0.17544
C          C       0.73307   0.29709   0.93037  -0.09641
C          C       0.58980   0.54676   0.77917   0.13015
C          C       0.61270   0.52573   0.74193  -0.17364
C          C       0.59120   0.54846   0.70537  -0.10076
C          C       0.72477   0.42444   0.76771   0.12858
C          C       0.69520   0.39734   0.78224  -0.17211
C          C       0.70970   0.37097   0.75230  -0.09880
C          C       0.53304   0.68425   0.91286   0.13339
C          C       0.56946   0.69619   0.91061  -0.17769
C          C       0.60501   0.70884   0.86436  -0.09654
C          C       0.36751   0.66293   0.05670   0.12790
C          C       0.34777   0.71371   0.03237  -0.17677
C          C       0.29715   0.73315   0.03953  -0.09609
C          C       0.54670   0.58975   0.08454   0.12982
C          C       0.52570   0.61270   0.11988  -0.17314
C          C       0.54850   0.59126   0.15513  -0.09946
C          C       0.42435   0.72453   0.08357   0.12661
C          C       0.39706   0.69510   0.12566  -0.17138
C          C       0.37066   0.70956   0.16750  -0.09925
C          C       0.68426   0.91285   0.53306   0.13362
C          C       0.69618   0.91059   0.56949  -0.17807
C          C       0.70883   0.86435   0.60503  -0.09648
C          C       0.66292   0.05670   0.36753   0.12803
C          C       0.71372   0.03237   0.34777  -0.17492
C          C       0.73316   0.03953   0.29715  -0.09628
C          C       0.58973   0.08453   0.54672   0.13037
C          C       0.61268   0.11984   0.52572  -0.17358
C          C       0.59124   0.15512   0.54852  -0.09956
C          C       0.72452   0.08357   0.42435   0.12646
C          C       0.69508   0.12567   0.39707  -0.17105
C          C       0.70955   0.16749   0.37067  -0.09928
C          C       0.53299   0.86987   0.68423   0.13424
C          C       0.56941   0.82370   0.69610  -0.17907
C          C       0.60497   0.82169   0.70877  -0.09657
C          C       0.36750   0.91303   0.66285   0.12713
C          C       0.34776   0.90651   0.71359  -0.17530
C          C       0.29710   0.93037   0.73306  -0.09622
C          C       0.54677   0.77919   0.58979   0.13003
C          C       0.52572   0.74198   0.61269  -0.17316
C          C       0.54844   0.70540   0.59119  -0.09937
C          C       0.42444   0.76772   0.72477   0.12837
C          C       0.39733   0.78224   0.69521  -0.17212
C          C       0.37098   0.75230   0.70970  -0.09850
C          C       0.91292   0.68420   0.86990   0.13389
C          C       0.91076   0.69606   0.82378  -0.17886
C          C       0.86454   0.70868   0.82182  -0.09667
C          C       0.05673   0.66267   0.91281   0.12816
C          C       0.03222   0.71344   0.90617  -0.17674
C          C       0.03949   0.73292   0.93008  -0.09533
C          C       0.08470   0.58970   0.77904   0.12951
C          C       0.12009   0.61257   0.74181  -0.17233
C          C       0.15536   0.59119   0.70512  -0.10001
C          C       0.08358   0.72449   0.76743   0.12882
C          C       0.12570   0.69502   0.78200  -0.17253
C          C       0.16747   0.70957   0.75214  -0.09872
C          C       0.86968   0.53328   0.91272   0.13426
C          C       0.82358   0.56970   0.91050  -0.17803
C          C       0.82159   0.60524   0.86429  -0.09654
C          C       0.91284   0.36767   0.05681   0.12735
C          C       0.90622   0.34789   0.03244  -0.17638
C          C       0.93023   0.29724   0.03970  -0.09526
C          C       0.77895   0.54676   0.08463   0.13023
C          C       0.74162   0.52584   0.11991  -0.17328
C          C       0.70502   0.54855   0.15528  -0.09885
C          C       0.76738   0.42445   0.08363   0.12779
C          C       0.78189   0.39727   0.12579  -0.17182
C          C       0.75206   0.37076   0.16755  -0.09853
C          C       0.86986   0.68423   0.53299   0.13401
C          C       0.82369   0.69611   0.56941  -0.17871
C          C       0.82167   0.70878   0.60498  -0.09640
C          C       0.91303   0.66290   0.36748   0.12783
C          C       0.90648   0.71363   0.34776  -0.17585
C          C       0.93035   0.73308   0.29710  -0.09642
C          C       0.77917   0.58979   0.54677   0.13011
C          C       0.74194   0.61268   0.52574  -0.17370
C          C       0.70538   0.59119   0.54846  -0.10068
C          C       0.76773   0.72476   0.42443   0.12693
C          C       0.78227   0.69519   0.39730  -0.17243
C          C       0.75232   0.70969   0.37095  -0.09848
C          C       0.91286   0.53303   0.68425   0.13382
C          C       0.91060   0.56947   0.69618  -0.17838
C          C       0.86435   0.60502   0.70883  -0.09643
C          C       0.05668   0.36750   0.66295   0.12754
C          C       0.03234   0.34778   0.71374  -0.17599
C          C       0.03952   0.29716   0.73316  -0.09672
C          C       0.08453   0.54672   0.58973   0.13059
C          C       0.11984   0.52573   0.61267  -0.17370
C          C       0.15511   0.54852   0.59125  -0.09957
C          C       0.08355   0.42435   0.72452   0.12668
C          C       0.12567   0.39704   0.69508  -0.17126
C          C       0.16750   0.37065   0.70954  -0.09966
C          C       0.53324   0.91274   0.86972   0.13411
C          C       0.56968   0.91049   0.82361  -0.17756
C          C       0.60524   0.86429   0.82159  -0.09676
C          C       0.36767   0.05681   0.91283   0.12761
C          C       0.34791   0.03243   0.90621  -0.17660
C          C       0.29726   0.03970   0.93022  -0.09558
C          C       0.54675   0.08467   0.77893   0.13006
C          C       0.52584   0.11994   0.74160  -0.17297
C          C       0.54855   0.15528   0.70502  -0.09890
C          C       0.42444   0.08364   0.76739   0.12770
C          C       0.39725   0.12582   0.78190  -0.17142
C          C       0.37073   0.16758   0.75207  -0.09839
C          C       0.68418   0.86991   0.91294   0.13385
C          C       0.69606   0.82379   0.91075  -0.17900
C          C       0.70868   0.82181   0.86453  -0.09637
C          C       0.66267   0.91281   0.05672   0.12787
C          C       0.71346   0.90615   0.03221  -0.17683
C          C       0.73291   0.93007   0.03950  -0.09524
C          C       0.58970   0.77901   0.08474   0.12939
C          C       0.61257   0.74178   0.12012  -0.17297
C          C       0.59119   0.70511   0.15537  -0.09935
C          C       0.72446   0.76743   0.08362   0.12838
C          C       0.69499   0.78202   0.12574  -0.17160
C          C       0.70954   0.75216   0.16750  -0.09952
C          C       0.08707   0.13010   0.31581   0.13409
C          C       0.08924   0.17622   0.30394  -0.17859
C          C       0.13546   0.17818   0.29132  -0.09683
C          C       0.94327   0.08719   0.33734   0.12786
C          C       0.96778   0.09383   0.28656  -0.17673
C          C       0.96050   0.06993   0.26709  -0.09541
C          C       0.91529   0.22097   0.41030   0.12945
C          C       0.87991   0.25819   0.38743  -0.17247
C          C       0.84464   0.29488   0.40881  -0.09978
C          C       0.91641   0.23258   0.27551   0.12887
C          C       0.87429   0.21801   0.30498  -0.17253
C          C       0.83252   0.24786   0.29044  -0.09880
C          C       0.13031   0.08728   0.46673   0.13414
C          C       0.17642   0.08951   0.43030  -0.17808
C          C       0.17841   0.13571   0.39476  -0.09669
C          C       0.08716   0.94319   0.63233   0.12750
C          C       0.09378   0.96756   0.65211  -0.17641
C          C       0.06977   0.96030   0.70276  -0.09537
C          C       0.22104   0.91537   0.45324   0.13008
C          C       0.25838   0.88009   0.47416  -0.17305
C          C       0.29498   0.84473   0.45145  -0.09912
C          C       0.23262   0.91637   0.57555   0.12781
C          C       0.21811   0.87422   0.60273  -0.17173
C          C       0.24793   0.83245   0.62924  -0.09860
C          C       0.31574   0.46694   0.08716   0.13362
C          C       0.30382   0.43051   0.08941  -0.17808
C          C       0.29117   0.39497   0.13565  -0.09656
C          C       0.33707   0.63248   0.94330   0.12797
C          C       0.28627   0.65224   0.96764  -0.17654
C          C       0.26684   0.70286   0.96047  -0.09621
C          C       0.41027   0.45329   0.91548   0.13031
C          C       0.38732   0.47428   0.88016  -0.17336
C          C       0.40875   0.45149   0.84489  -0.09957
C          C       0.27548   0.57566   0.91643   0.12652
C          C       0.30492   0.60294   0.87434  -0.17129
C          C       0.29045   0.62933   0.83251  -0.09916
C          C       0.46700   0.31577   0.13014   0.13428
C          C       0.43059   0.30390   0.17631  -0.17894
C          C       0.39503   0.29123   0.17832  -0.09648
C          C       0.63250   0.33715   0.08697   0.12694
C          C       0.65223   0.28641   0.09349  -0.17510
C          C       0.70290   0.26694   0.06964  -0.09634
C          C       0.45323   0.41021   0.22082   0.13020
C          C       0.47428   0.38732   0.25802  -0.17357
C          C       0.45155   0.40881   0.29460  -0.09924
C          C       0.57555   0.27523   0.23229   0.12834
C          C       0.60267   0.30479   0.21776  -0.17228
C          C       0.62902   0.29030   0.24770  -0.09856
C          C       0.31581   0.08706   0.13009   0.13401
C          C       0.30393   0.08925   0.17622  -0.17895
C          C       0.29131   0.13547   0.17819  -0.09624
C          C       0.33732   0.94328   0.08720   0.12781
C          C       0.28654   0.96779   0.09385  -0.17677
C          C       0.26709   0.96050   0.06994  -0.09524
C          C       0.41030   0.91526   0.22099   0.12942
C          C       0.38743   0.87988   0.25823  -0.17278
C          C       0.40881   0.84464   0.29490  -0.09959
C          C       0.27553   0.91639   0.23257   0.12838
C          C       0.30501   0.87426   0.21798  -0.17177
C          C       0.29045   0.83250   0.24785  -0.09932
C          C       0.46675   0.13029   0.08727   0.13408
C          C       0.43032   0.17639   0.08951  -0.17759
C          C       0.39476   0.17841   0.13571  -0.09683
C          C       0.63233   0.08717   0.94319   0.12745
C          C       0.65208   0.09380   0.96758  -0.17633
C          C       0.70274   0.06978   0.96031  -0.09544
C          C       0.45324   0.22107   0.91534   0.13024
C          C       0.47416   0.25840   0.88006  -0.17315
C          C       0.45145   0.29498   0.84472  -0.09882
C          C       0.57555   0.23261   0.91636   0.12754
C          C       0.60275   0.21810   0.87419  -0.17149
C          C       0.62926   0.24793   0.83243  -0.09874
C          C       0.08714   0.31576   0.46697   0.13382
C          C       0.08940   0.30382   0.43054  -0.17825
C          C       0.13564   0.29117   0.39498  -0.09649
C          C       0.94331   0.33705   0.63250   0.12751
C          C       0.96765   0.28626   0.65223  -0.17640
C          C       0.96047   0.26685   0.70285  -0.09637
C          C       0.91547   0.41027   0.45329   0.13061
C          C       0.88015   0.38733   0.47427  -0.17386
C          C       0.84489   0.40875   0.45148  -0.09945
C          C       0.91644   0.27549   0.57565   0.12693
C          C       0.87433   0.30492   0.60296  -0.17158
C          C       0.83250   0.29046   0.62935  -0.09924
C          C       0.13014   0.46702   0.31577   0.13376
C          C       0.17631   0.43060   0.30389  -0.17873
C          C       0.17832   0.39503   0.29122  -0.09656
C          C       0.08697   0.63253   0.33710   0.12776
C          C       0.09351   0.65224   0.28637  -0.17598
C          C       0.06965   0.70290   0.26693  -0.09629
C          C       0.22083   0.45323   0.41021   0.13002
C          C       0.25805   0.47426   0.38732  -0.17355
C          C       0.29462   0.45154   0.40881  -0.10080
C          C       0.23227   0.57557   0.27524   0.12665
C          C       0.21773   0.60270   0.30481  -0.17217
C          C       0.24768   0.62905   0.29031  -0.09846
C          C       0.13011   0.31581   0.08706   0.13404
C          C       0.17624   0.30393   0.08923  -0.17906
C          C       0.17820   0.29131   0.13545  -0.09796
C          C       0.08719   0.33733   0.94327   0.12745
C          C       0.09384   0.28656   0.96777  -0.17669
C          C       0.06993   0.26710   0.96050  -0.09510
C          C       0.22098   0.41030   0.91527   0.12931
C          C       0.25824   0.38743   0.87987  -0.17292
C          C       0.29491   0.40881   0.84462  -0.09962
C          C       0.23258   0.27552   0.91640   0.12869
C          C       0.21799   0.30499   0.87429  -0.17220
C          C       0.24786   0.29044   0.83252  -0.09886
C          C       0.08727   0.46673   0.13031   0.13416
C          C       0.08949   0.43033   0.17641  -0.17779
C          C       0.13570   0.39478   0.17840  -0.09699
C          C       0.94318   0.63235   0.08717   0.12764
C          C       0.96756   0.65212   0.09378  -0.17431
C          C       0.96030   0.70276   0.06977  -0.09564
C          C       0.91536   0.45325   0.22105   0.13028
C          C       0.88006   0.47416   0.25841  -0.17325
C          C       0.84471   0.45145   0.29499  -0.09879
C          C       0.91639   0.57554   0.23263   0.12746
C          C       0.87423   0.60272   0.21812  -0.17195
C          C       0.83245   0.62925   0.24795  -0.09806
C          C       0.46695   0.08714   0.31575   0.13350
C          C       0.43053   0.08939   0.30381  -0.17786
C          C       0.39498   0.13564   0.29117  -0.09659
C          C       0.63249   0.94330   0.33707   0.12770
C          C       0.65222   0.96763   0.28629  -0.17638
C          C       0.70284   0.96047   0.26685  -0.09642
C          C       0.45330   0.91546   0.41025   0.13001
C          C       0.47429   0.88013   0.38731  -0.17330
C          C       0.45150   0.84487   0.40874  -0.09947
C          C       0.57565   0.91644   0.27547   0.12645
C          C       0.60293   0.87435   0.30491  -0.17129
C          C       0.62934   0.83251   0.29044  -0.09941
C          C       0.31577   0.13015   0.46699   0.13402
C          C       0.30389   0.17632   0.43060  -0.17867
C          C       0.29122   0.17832   0.39504  -0.09646
C          C       0.33712   0.08698   0.63252   0.12755
C          C       0.28638   0.09350   0.65226  -0.17547
C          C       0.26692   0.06964   0.70292  -0.09643
C          C       0.41020   0.22083   0.45324   0.13000
C          C       0.38730   0.25807   0.47428  -0.17329
C          C       0.40880   0.29463   0.45155  -0.10103
C          C       0.27522   0.23229   0.57556   0.12863
C          C       0.30479   0.21776   0.60267  -0.17226
C          C       0.29029   0.24771   0.62903  -0.09870
C          C       0.08727   0.13031   0.46673   0.13420
C          C       0.08949   0.17641   0.43033  -0.17776
C          C       0.13570   0.17841   0.39478  -0.09688
C          C       0.94318   0.08717   0.63235   0.12779
C          C       0.96756   0.09378   0.65212  -0.17442
C          C       0.96030   0.06977   0.70276  -0.09554
C          C       0.91535   0.22106   0.45325   0.13037
C          C       0.88006   0.25841   0.47416  -0.17339
C          C       0.84471   0.29499   0.45145  -0.09873
C          C       0.91639   0.23263   0.57554   0.12742
C          C       0.87423   0.21812   0.60272  -0.17202
C          C       0.83245   0.24795   0.62925  -0.09812
C          C       0.13011   0.08706   0.31581   0.13411
C          C       0.17624   0.08923   0.30393  -0.17908
C          C       0.17820   0.13545   0.29131  -0.09800
C          C       0.08719   0.94327   0.33733   0.12777
C          C       0.09384   0.96777   0.28656  -0.17688
C          C       0.06993   0.96050   0.26709  -0.09498
C          C       0.22098   0.91528   0.41030   0.12951
C          C       0.25824   0.87987   0.38743  -0.17281
C          C       0.29491   0.84462   0.40881  -0.09984
C          C       0.23258   0.91640   0.27552   0.12859
C          C       0.21800   0.87429   0.30499  -0.17244
C          C       0.24786   0.83252   0.29043  -0.09884
C          C       0.31577   0.46699   0.13015   0.13413
C          C       0.30389   0.43060   0.17632  -0.17879
C          C       0.29122   0.39504   0.17832  -0.09650
C          C       0.33712   0.63252   0.08697   0.12754
C          C       0.28638   0.65226   0.09350  -0.17558
C          C       0.26693   0.70292   0.06964  -0.09636
C          C       0.41020   0.45324   0.22083   0.12989
C          C       0.38730   0.47428   0.25807  -0.17319
C          C       0.40880   0.45155   0.29463  -0.10092
C          C       0.27522   0.57556   0.23229   0.12877
C          C       0.30479   0.60267   0.21776  -0.17214
C          C       0.29029   0.62903   0.24771  -0.09876
C          C       0.46695   0.31575   0.08714   0.13347
C          C       0.43053   0.30381   0.08939  -0.17794
C          C       0.39498   0.29117   0.13564  -0.09651
C          C       0.63249   0.33707   0.94330   0.12775
C          C       0.65222   0.28629   0.96763  -0.17641
C          C       0.70284   0.26685   0.96047  -0.09645
C          C       0.45330   0.41025   0.91546   0.12999
C          C       0.47429   0.38731   0.88013  -0.17345
C          C       0.45149   0.40874   0.84487  -0.09944
C          C       0.57565   0.27547   0.91644   0.12655
C          C       0.60293   0.30491   0.87434  -0.17114
C          C       0.62934   0.29044   0.83251  -0.09939
C          C       0.31574   0.08716   0.46694   0.13370
C          C       0.30381   0.08941   0.43051  -0.17819
C          C       0.29117   0.13565   0.39497  -0.09654
C          C       0.33707   0.94331   0.63247   0.12784
C          C       0.28628   0.96764   0.65223  -0.17641
C          C       0.26684   0.96047   0.70285  -0.09616
C          C       0.41027   0.91548   0.45328   0.13020
C          C       0.38732   0.88017   0.47428  -0.17345
C          C       0.40875   0.84489   0.45148  -0.09958
C          C       0.27548   0.91643   0.57565   0.12640
C          C       0.30492   0.87434   0.60294  -0.17109
C          C       0.29045   0.83252   0.62933  -0.09945
C          C       0.46700   0.13014   0.31577   0.13424
C          C       0.43059   0.17631   0.30390  -0.17885
C          C       0.39503   0.17832   0.29123  -0.09654
C          C       0.63250   0.08697   0.33715   0.12699
C          C       0.65223   0.09350   0.28641  -0.17512
C          C       0.70290   0.06964   0.26694  -0.09632
C          C       0.45323   0.22082   0.41021   0.13017
C          C       0.47428   0.25802   0.38732  -0.17363
C          C       0.45155   0.29460   0.40881  -0.09907
C          C       0.57555   0.23229   0.27523   0.12833
C          C       0.60267   0.21776   0.30479  -0.17227
C          C       0.62902   0.24770   0.29030  -0.09859
C          C       0.08707   0.31581   0.13010   0.13412
C          C       0.08924   0.30394   0.17622  -0.17868
C          C       0.13546   0.29132   0.17818  -0.09686
C          C       0.94327   0.33734   0.08719   0.12787
C          C       0.96778   0.28656   0.09383  -0.17675
C          C       0.96050   0.26709   0.06992  -0.09537
C          C       0.91529   0.41030   0.22096   0.12951
C          C       0.87991   0.38743   0.25819  -0.17248
C          C       0.84464   0.40881   0.29488  -0.09985
C          C       0.91641   0.27551   0.23257   0.12871
C          C       0.87429   0.30498   0.21800  -0.17240
C          C       0.83252   0.29044   0.24786  -0.09885
C          C       0.13031   0.46673   0.08728   0.13417
C          C       0.17642   0.43030   0.08950  -0.17814
C          C       0.17841   0.39476   0.13571  -0.09665
C          C       0.08716   0.63234   0.94319   0.12745
C          C       0.09378   0.65212   0.96756  -0.17659
C          C       0.06977   0.70277   0.96030  -0.09509
C          C       0.22104   0.45325   0.91537   0.13023
C          C       0.25838   0.47416   0.88009  -0.17307
C          C       0.29497   0.45145   0.84472  -0.09902
C          C       0.23262   0.57555   0.91637   0.12776
C          C       0.21811   0.60273   0.87421  -0.17171
C          C       0.24793   0.62925   0.83245  -0.09851
C          C       0.13013   0.31578   0.46702   0.13372
C          C       0.17631   0.30389   0.43060  -0.17873
C          C       0.17832   0.29122   0.39502  -0.09658
C          C       0.08697   0.33711   0.63253   0.12774
C          C       0.09351   0.28637   0.65224  -0.17609
C          C       0.06965   0.26693   0.70290  -0.09615
C          C       0.22083   0.41022   0.45323   0.13000
C          C       0.25805   0.38733   0.47426  -0.17365
C          C       0.29462   0.40881   0.45154  -0.10077
C          C       0.23226   0.27525   0.57557   0.12688
C          C       0.21773   0.30481   0.60270  -0.17223
C          C       0.24768   0.29031   0.62905  -0.09843
C          C       0.08714   0.46697   0.31575   0.13374
C          C       0.08940   0.43054   0.30382  -0.17818
C          C       0.13564   0.39498   0.29117  -0.09654
C          C       0.94331   0.63250   0.33705   0.12752
C          C       0.96766   0.65223   0.28626  -0.17640
C          C       0.96047   0.70285   0.26684  -0.09635
C          C       0.91547   0.45329   0.41027   0.13059
C          C       0.88015   0.47427   0.38733  -0.17386
C          C       0.84489   0.45148   0.40875  -0.09940
C          C       0.91644   0.57566   0.27548   0.12701
C          C       0.87433   0.60297   0.30492  -0.17156
C          C       0.83250   0.62936   0.29046  -0.09935
C          C       0.46675   0.08727   0.13028   0.13411
C          C       0.43032   0.08951   0.17639  -0.17762
C          C       0.39476   0.13571   0.17841  -0.09686
C          C       0.63233   0.94319   0.08717   0.12731
C          C       0.65209   0.96758   0.09379  -0.17621
C          C       0.70274   0.96031   0.06978  -0.09562
C          C       0.45324   0.91534   0.22107   0.13021
C          C       0.47416   0.88006   0.25840  -0.17309
C          C       0.45145   0.84472   0.29498  -0.09893
C          C       0.57555   0.91636   0.23261   0.12759
C          C       0.60275   0.87419   0.21810  -0.17142
C          C       0.62926   0.83243   0.24793  -0.09860
C          C       0.31581   0.13009   0.08706   0.13402
C          C       0.30393   0.17622   0.08925  -0.17892
C          C       0.29131   0.17819   0.13547  -0.09637
C          C       0.33732   0.08720   0.94328   0.12802
C          C       0.28654   0.09385   0.96779  -0.17683
C          C       0.26709   0.06994   0.96050  -0.09533
C          C       0.41030   0.22100   0.91526   0.12951
C          C       0.38743   0.25823   0.87988  -0.17287
C          C       0.40881   0.29490   0.84463  -0.09957
C          C       0.27553   0.23257   0.91638   0.12829
C          C       0.30501   0.21799   0.87426  -0.17197
C          C       0.29045   0.24785   0.83250  -0.09923
C          C       0.91292   0.86991   0.68420   0.13406
C          C       0.91076   0.82378   0.69606  -0.17897
C          C       0.86454   0.82182   0.70868  -0.09667
C          C       0.05673   0.91281   0.66266   0.12799
C          C       0.03222   0.90617   0.71344  -0.17686
C          C       0.03949   0.93008   0.73291  -0.09514
C          C       0.08470   0.77904   0.58970   0.12939
C          C       0.12009   0.74181   0.61257  -0.17242
C          C       0.15536   0.70512   0.59119  -0.10011
C          C       0.08358   0.76743   0.72449   0.12868
C          C       0.12570   0.78200   0.69502  -0.17236
C          C       0.16747   0.75214   0.70956  -0.09883
C          C       0.86968   0.91272   0.53327   0.13403
C          C       0.82358   0.91050   0.56970  -0.17785
C          C       0.82159   0.86430   0.60524  -0.09652
C          C       0.91284   0.05682   0.36767   0.12742
C          C       0.90622   0.03244   0.34789  -0.17428
C          C       0.93023   0.03970   0.29724  -0.09518
C          C       0.77895   0.08464   0.54676   0.13020
C          C       0.74162   0.11991   0.52584  -0.17324
C          C       0.70502   0.15528   0.54855  -0.09896
C          C       0.76738   0.08363   0.42445   0.12779
C          C       0.78189   0.12579   0.39727  -0.17186
C          C       0.75206   0.16755   0.37076  -0.09836
C          C       0.68426   0.53307   0.91284   0.13359
C          C       0.69618   0.56950   0.91059  -0.17811
C          C       0.70882   0.60504   0.86435  -0.09642
C          C       0.66292   0.36753   0.05670   0.12796
C          C       0.71372   0.34777   0.03237  -0.17659
C          C       0.73316   0.29715   0.03953  -0.09632
C          C       0.58973   0.54672   0.08453   0.13037
C          C       0.61268   0.52572   0.11984  -0.17370
C          C       0.59124   0.54852   0.15511  -0.09952
C          C       0.72452   0.42435   0.08357   0.12648
C          C       0.69508   0.39707   0.12567  -0.17104
C          C       0.70955   0.37067   0.16749  -0.09938
C          C       0.53299   0.68424   0.86986   0.13424
C          C       0.56941   0.69611   0.82370  -0.17898
C          C       0.60497   0.70877   0.82169  -0.09655
C          C       0.36749   0.66285   0.91303   0.12708
C          C       0.34776   0.71359   0.90651  -0.17523
C          C       0.29709   0.73306   0.93037  -0.09619
C          C       0.54676   0.58979   0.77918   0.12986
C          C       0.52571   0.61269   0.74198  -0.17286
C          C       0.54844   0.59119   0.70540  -0.09944
C          C       0.42444   0.72478   0.76772   0.12840
C          C       0.39733   0.69521   0.78224  -0.17220
C          C       0.37098   0.70970   0.75230  -0.09882
C          C       0.68418   0.91294   0.86991   0.13361
C          C       0.69606   0.91075   0.82379  -0.17856
C          C       0.70868   0.86453   0.82181  -0.09630
C          C       0.66267   0.05673   0.91280   0.12792
C          C       0.71345   0.03222   0.90615  -0.17704
C          C       0.73291   0.03950   0.93007  -0.09529
C          C       0.58969   0.08475   0.77901   0.12955
C          C       0.61257   0.12013   0.74178  -0.17307
C          C       0.59119   0.15537   0.70511  -0.09944
C          C       0.72446   0.08362   0.76743   0.12846
C          C       0.69499   0.12574   0.78202  -0.17178
C          C       0.70954   0.16750   0.75216  -0.09926
C          C       0.53324   0.86972   0.91274   0.13421
C          C       0.56968   0.82362   0.91049  -0.17772
C          C       0.60524   0.82160   0.86429  -0.09695
C          C       0.36767   0.91283   0.05681   0.12760
C          C       0.34791   0.90621   0.03242  -0.17632
C          C       0.29726   0.93022   0.03970  -0.09562
C          C       0.54675   0.77893   0.08467   0.13010
C          C       0.52584   0.74160   0.11994  -0.17303
C          C       0.54855   0.70502   0.15528  -0.09903
C          C       0.42444   0.76739   0.08364   0.12766
C          C       0.39725   0.78190   0.12582  -0.17139
C          C       0.37073   0.75207   0.16758  -0.09851
C          C       0.91286   0.68425   0.53303   0.13369
C          C       0.91060   0.69618   0.56946  -0.17822
C          C       0.86435   0.70883   0.60502  -0.09652
C          C       0.05668   0.66296   0.36750   0.12760
C          C       0.03234   0.71374   0.34778  -0.17620
C          C       0.03952   0.73316   0.29715  -0.09650
C          C       0.08453   0.58974   0.54671   0.13055
C          C       0.11985   0.61267   0.52573  -0.17363
C          C       0.15511   0.59125   0.54852  -0.09948
C          C       0.08355   0.72452   0.42435   0.12678
C          C       0.12567   0.69508   0.39704  -0.17137
C          C       0.16750   0.70955   0.37065  -0.09956
C          C       0.86986   0.53299   0.68423   0.13396
C          C       0.82369   0.56941   0.69611  -0.17861
C          C       0.82167   0.60498   0.70878  -0.09650
C          C       0.91302   0.36748   0.66290   0.12776
C          C       0.90648   0.34776   0.71363  -0.17577
C          C       0.93035   0.29710   0.73308  -0.09661
C          C       0.77917   0.54677   0.58979   0.13015
C          C       0.74194   0.52574   0.61268  -0.17388
C          C       0.70538   0.54846   0.59119  -0.10068
C          C       0.76773   0.42444   0.72476   0.12682
C          C       0.78227   0.39730   0.69519  -0.17229
C          C       0.75232   0.37096   0.70969  -0.09849
C          C       0.86988   0.68419   0.91294   0.13429
C          C       0.82375   0.69607   0.91077  -0.17887
C          C       0.82180   0.70869   0.86455  -0.09799
C          C       0.91280   0.66267   0.05673   0.12767
C          C       0.90615   0.71344   0.03223  -0.17688
C          C       0.93006   0.73291   0.03950  -0.09484
C          C       0.77902   0.58970   0.08473   0.12951
C          C       0.74176   0.61258   0.12013  -0.17275
C          C       0.70508   0.59120   0.15538  -0.09978
C          C       0.76742   0.72448   0.08361   0.12858
C          C       0.78200   0.69501   0.12571  -0.17263
C          C       0.75214   0.70957   0.16748  -0.09864
C          C       0.91272   0.53327   0.86969   0.13428
C          C       0.91051   0.56967   0.82360  -0.17777
C          C       0.86430   0.60522   0.82160  -0.09709
C          C       0.05681   0.36766   0.91284   0.12767
C          C       0.03243   0.34788   0.90623  -0.17422
C          C       0.03970   0.29724   0.93024  -0.09565
C          C       0.08464   0.54676   0.77895   0.13028
C          C       0.11993   0.52585   0.74159  -0.17343
C          C       0.15529   0.54855   0.70501  -0.09879
C          C       0.08360   0.42446   0.76738   0.12722
C          C       0.12577   0.39729   0.78188  -0.17177
C          C       0.16755   0.37075   0.75205  -0.09825
C          C       0.53304   0.91286   0.68425   0.13342
C          C       0.56946   0.91061   0.69619  -0.17764
C          C       0.60501   0.86437   0.70883  -0.09658
C          C       0.36751   0.05671   0.66293   0.12788
C          C       0.34777   0.03237   0.71371  -0.17683
C          C       0.29715   0.03954   0.73315  -0.09601
C          C       0.54669   0.08454   0.58975   0.12985
C          C       0.52570   0.11988   0.61270  -0.17317
C          C       0.54850   0.15514   0.59126  -0.09945
C          C       0.42435   0.08357   0.72453   0.12662
C          C       0.39706   0.12566   0.69510  -0.17142
C          C       0.37066   0.16750   0.70956  -0.09916
C          C       0.68423   0.86985   0.53301   0.13408
C          C       0.69611   0.82369   0.56940  -0.17891
C          C       0.70878   0.82168   0.60497  -0.09663
C          C       0.66288   0.91303   0.36748   0.12751
C          C       0.71362   0.90651   0.34774  -0.17554
C          C       0.73307   0.93037   0.29708  -0.09636
C          C       0.58980   0.77917   0.54676   0.13011
C          C       0.61270   0.74193   0.52572  -0.17349
C          C       0.59120   0.70538   0.54845  -0.10088
C          C       0.72478   0.76772   0.42444   0.12867
C          C       0.69520   0.78225   0.39733  -0.17208
C          C       0.70970   0.75230   0.37097  -0.09879
C          C       0.93293   0.93292   0.47123   0.16119
C          C       0.93313   0.93316   0.66282   0.16116
C          C       0.66284   0.47095   0.93320   0.16150
C          C       0.47092   0.66284   0.93322   0.16147
C          C       0.66284   0.93320   0.47095   0.16164
C          C       0.47092   0.93322   0.66284   0.16142
C          C       0.93313   0.66282   0.93315   0.16120
C          C       0.93293   0.47123   0.93292   0.16104
C          C       0.93323   0.66283   0.47090   0.16179
C          C       0.93323   0.47090   0.66282   0.16175
C          C       0.47117   0.93297   0.93297   0.16227
C          C       0.66280   0.93317   0.93317   0.16268
C          C       0.06686   0.06685   0.33718   0.16122
C          C       0.06706   0.06708   0.52878   0.16131
C          C       0.33716   0.52905   0.06681   0.16172
C          C       0.52907   0.33716   0.06678   0.16134
C          C       0.33720   0.06683   0.06683   0.16223
C          C       0.52883   0.06703   0.06703   0.16205
C          C       0.06677   0.33718   0.52910   0.16203
C          C       0.06677   0.52910   0.33718   0.16195
C          C       0.06686   0.33718   0.06685   0.16130
C          C       0.06706   0.52878   0.06708   0.16132
C          C       0.52907   0.06678   0.33716   0.16127
C          C       0.33716   0.06681   0.52905   0.16187
C          C       0.08945   0.91046   0.41255   0.15528
C          C       0.91054   0.08955   0.58745   0.15504
C          C       0.58774   0.41228   0.91064   0.15316
C          C       0.41226   0.58772   0.08936   0.15289
C          C       0.58769   0.08937   0.41229   0.15309
C          C       0.41231   0.91064   0.58771   0.15256
C          C       0.08954   0.58743   0.91054   0.15507
C          C       0.91045   0.41258   0.08946   0.15543
C          C       0.91065   0.58778   0.41225   0.15312
C          C       0.08935   0.41223   0.58775   0.15336
C          C       0.41255   0.08946   0.91046   0.15533
C          C       0.58744   0.91055   0.08954   0.15566
C          C       0.91045   0.08946   0.41258   0.15545
C          C       0.08954   0.91054   0.58743   0.15514
C          C       0.41231   0.58771   0.91064   0.15249
C          C       0.58769   0.41229   0.08937   0.15306
C          C       0.41256   0.91046   0.08945   0.15548
C          C       0.58744   0.08955   0.91055   0.15559
C          C       0.91065   0.41226   0.58777   0.15332
C          C       0.08935   0.58775   0.41223   0.15313
C          C       0.08945   0.41255   0.91046   0.15539
C          C       0.91054   0.58745   0.08955   0.15516
C          C       0.58774   0.91064   0.41228   0.15310
C          C       0.41226   0.08936   0.58772   0.15296
C          C       0.02440   0.84359   0.56607   0.15578
C          C       0.84358   0.02442   0.56605   0.15504
C          C       0.56615   0.56618   0.84372   0.15653
C          C       0.56605   0.56605   0.02428   0.15605
C          C       0.56604   0.02429   0.56605   0.15587
C          C       0.56615   0.84372   0.56618   0.15669
C          C       0.02440   0.56607   0.84359   0.15566
C          C       0.84358   0.56605   0.02442   0.15505
C          C       0.84371   0.56616   0.56616   0.15632
C          C       0.02428   0.56605   0.56604   0.15615
C          C       0.56605   0.02447   0.84355   0.15528
C          C       0.56605   0.84355   0.02447   0.15538
C          C       0.97559   0.15642   0.43393   0.15521
C          C       0.15641   0.97559   0.43395   0.15527
C          C       0.43395   0.43396   0.97572   0.15622
C          C       0.43384   0.43383   0.15629   0.15652
C          C       0.43395   0.97554   0.15645   0.15532
C          C       0.43395   0.15646   0.97554   0.15507
C          C       0.97571   0.43396   0.43396   0.15608
C          C       0.15629   0.43384   0.43384   0.15650
C          C       0.15641   0.43396   0.97559   0.15526
C          C       0.97559   0.43393   0.15641   0.15529
C          C       0.43395   0.97572   0.43395   0.15626
C          C       0.43384   0.15629   0.43383   0.15642
C          C       0.01232   0.75661   0.47441   0.16924
C          C       0.75660   0.01238   0.75657   0.16844
C          C       0.75689   0.47438   0.75691   0.17066
C          C       0.47440   0.75658   0.01235   0.16906
C          C       0.75658   0.01237   0.47439   0.16935
C          C       0.47439   0.75690   0.75690   0.17053
C          C       0.01235   0.75660   0.75659   0.16900
C          C       0.75658   0.47439   0.01237   0.16932
C          C       0.75689   0.75691   0.47438   0.17055
C          C       0.01232   0.47441   0.75660   0.16923
C          C       0.47440   0.01235   0.75658   0.16883
C          C       0.75660   0.75657   0.01238   0.16864
C          C       0.98765   0.24341   0.24341   0.16865
C          C       0.24341   0.98763   0.52561   0.16947
C          C       0.24341   0.52561   0.98763   0.16938
C          C       0.52561   0.24310   0.24310   0.17058
C          C       0.24340   0.98762   0.24343   0.16884
C          C       0.52559   0.24342   0.98765   0.16932
C          C       0.98767   0.24340   0.52559   0.16875
C          C       0.24310   0.52562   0.24309   0.17056
C          C       0.24340   0.24344   0.98762   0.16886
C          C       0.98767   0.52559   0.24340   0.16875
C          C       0.52560   0.98765   0.24342   0.16924
C          C       0.24310   0.24309   0.52562   0.17046
N          N       0.95239   0.88377   0.49336  -0.35805
N          N       0.05880   0.89243   0.41554  -0.36038
N          N       0.04580   0.82061   0.53244  -0.35963
N          N       0.03780   0.78722   0.45659  -0.35476
N          N       0.88397   0.95258   0.67039  -0.35663
N          N       0.89251   0.05882   0.63308  -0.36010
N          N       0.82070   0.04592   0.60115  -0.35811
N          N       0.78728   0.03781   0.71833  -0.35564
N          N       0.67041   0.49308   0.88405  -0.35779
N          N       0.63337   0.41537   0.89268  -0.35925
N          N       0.60129   0.53247   0.82080  -0.35965
N          N       0.71865   0.45651   0.78758  -0.35566
N          N       0.49313   0.67044   0.95256  -0.35691
N          N       0.41536   0.63338   0.05876  -0.35935
N          N       0.53237   0.60121   0.04574  -0.35868
N          N       0.45643   0.71842   0.03774  -0.35460
N          N       0.67046   0.95254   0.49314  -0.35685
N          N       0.63336   0.05876   0.41538  -0.35955
N          N       0.60120   0.04573   0.53238  -0.35916
N          N       0.71841   0.03776   0.45643  -0.35445
N          N       0.49304   0.88407   0.67043  -0.35761
N          N       0.41539   0.89267   0.63334  -0.35930
N          N       0.53247   0.82081   0.60131  -0.35884
N          N       0.45651   0.78757   0.71865  -0.35589
N          N       0.95255   0.67042   0.88399  -0.35779
N          N       0.05882   0.63307   0.89250  -0.36069
N          N       0.04589   0.60117   0.82071  -0.35819
N          N       0.03778   0.71836   0.78728  -0.35587
N          N       0.88376   0.49336   0.95237  -0.35720
N          N       0.89244   0.41556   0.05880  -0.35999
N          N       0.82061   0.53244   0.04579  -0.35908
N          N       0.78721   0.45658   0.03784  -0.35550
N          N       0.88407   0.67041   0.49303  -0.35743
N          N       0.89268   0.63340   0.41536  -0.35943
N          N       0.82079   0.60129   0.53247  -0.35911
N          N       0.78757   0.71865   0.45651  -0.35609
N          N       0.95256   0.49311   0.67043  -0.35769
N          N       0.05874   0.41534   0.63341  -0.35898
N          N       0.04573   0.53238   0.60120  -0.35938
N          N       0.03772   0.45644   0.71842  -0.35493
N          N       0.49332   0.95240   0.88380  -0.35787
N          N       0.41556   0.05880   0.89243  -0.36075
N          N       0.53243   0.04584   0.82058  -0.35884
N          N       0.45658   0.03784   0.78721  -0.35536
N          N       0.67039   0.88401   0.95257  -0.35795
N          N       0.63308   0.89250   0.05881  -0.36061
N          N       0.60115   0.82068   0.04594  -0.35816
N          N       0.71834   0.78727   0.03782  -0.35524
N          N       0.04744   0.11601   0.32959  -0.35742
N          N       0.94117   0.10750   0.36694  -0.36095
N          N       0.95411   0.17929   0.39883  -0.35837
N          N       0.96221   0.21273   0.28164  -0.35588
N          N       0.11624   0.04763   0.50665  -0.35774
N          N       0.10756   0.94121   0.58444  -0.36006
N          N       0.17939   0.95421   0.46757  -0.35886
N          N       0.21279   0.96216   0.54342  -0.35524
N          N       0.32954   0.50686   0.04746  -0.35707
N          N       0.36663   0.58463   0.94125  -0.35948
N          N       0.39879   0.46762   0.95428  -0.35865
N          N       0.28158   0.54357   0.96224  -0.35461
N          N       0.50695   0.32957   0.11594  -0.35758
N          N       0.58460   0.36666   0.10733  -0.35915
N          N       0.46753   0.39869   0.17920  -0.35921
N          N       0.54349   0.28135   0.21243  -0.35602
N          N       0.32961   0.04743   0.11599  -0.35763
N          N       0.36692   0.94119   0.10750  -0.36045
N          N       0.39884   0.95406   0.17932  -0.35796
N          N       0.28165   0.96219   0.21273  -0.35555
N          N       0.50668   0.11620   0.04760  -0.35811
N          N       0.58444   0.10758   0.94121  -0.35995
N          N       0.46756   0.17943   0.95416  -0.35900
N          N       0.54341   0.21279   0.96217  -0.35559
N          N       0.04743   0.32957   0.50690  -0.35742
N          N       0.94126   0.36659   0.58466  -0.35952
N          N       0.95426   0.39881   0.46762  -0.35930
N          N       0.96227   0.28158   0.54356  -0.35481
N          N       0.11593   0.50697   0.32959  -0.35742
N          N       0.10732   0.58464   0.36660  -0.35986
N          N       0.17920   0.46753   0.39871  -0.35911
N          N       0.21242   0.54349   0.28136  -0.35558
N          N       0.11602   0.32961   0.04742  -0.35706
N          N       0.10749   0.36693   0.94118  -0.36023
N          N       0.17930   0.39885   0.95408  -0.35836
N          N       0.21271   0.28167   0.96219  -0.35512
N          N       0.04761   0.50665   0.11623  -0.35750
N          N       0.94120   0.58446   0.10757  -0.36049
N          N       0.95419   0.46756   0.17940  -0.35933
N          N       0.96220   0.54341   0.21278  -0.35495
N          N       0.50686   0.04744   0.32957  -0.35702
N          N       0.58464   0.94124   0.36662  -0.35908
N          N       0.46763   0.95426   0.39879  -0.35906
N          N       0.54356   0.96226   0.28158  -0.35433
N          N       0.32959   0.11595   0.50693  -0.35756
N          N       0.36662   0.10732   0.58464  -0.35955
N          N       0.39870   0.17920   0.46753  -0.35912
N          N       0.28135   0.21242   0.54350  -0.35615
N          N       0.04761   0.11624   0.50664  -0.35741
N          N       0.94120   0.10757   0.58446  -0.36036
N          N       0.95419   0.17940   0.46756  -0.35938
N          N       0.96220   0.21278   0.54341  -0.35504
N          N       0.11602   0.04743   0.32961  -0.35718
N          N       0.10749   0.94118   0.36692  -0.36023
N          N       0.17930   0.95409   0.39885  -0.35810
N          N       0.21272   0.96219   0.28167  -0.35521
N          N       0.32959   0.50693   0.11595  -0.35762
N          N       0.36663   0.58464   0.10732  -0.35959
N          N       0.39870   0.46753   0.17920  -0.35914
N          N       0.28135   0.54350   0.21242  -0.35604
N          N       0.50686   0.32957   0.04744  -0.35695
N          N       0.58464   0.36662   0.94124  -0.35910
N          N       0.46763   0.39880   0.95426  -0.35934
N          N       0.54356   0.28159   0.96226  -0.35422
N          N       0.32954   0.04746   0.50686  -0.35733
N          N       0.36663   0.94125   0.58462  -0.35919
N          N       0.39880   0.95428   0.46762  -0.35890
N          N       0.28158   0.96225   0.54357  -0.35449
N          N       0.50695   0.11594   0.32957  -0.35753
N          N       0.58460   0.10733   0.36666  -0.35915
N          N       0.46753   0.17920   0.39869  -0.35920
N          N       0.54349   0.21243   0.28135  -0.35612
N          N       0.04744   0.32959   0.11601  -0.35753
N          N       0.94117   0.36694   0.10750  -0.36097
N          N       0.95411   0.39883   0.17929  -0.35842
N          N       0.96221   0.28165   0.21272  -0.35569
N          N       0.11624   0.50665   0.04763  -0.35752
N          N       0.10756   0.58444   0.94121  -0.36027
N          N       0.17939   0.46757   0.95421  -0.35861
N          N       0.21278   0.54342   0.96216  -0.35531
N          N       0.11593   0.32959   0.50697  -0.35747
N          N       0.10732   0.36660   0.58464  -0.35995
N          N       0.17920   0.39871   0.46753  -0.35927
N          N       0.21242   0.28136   0.54349  -0.35546
N          N       0.04743   0.50690   0.32957  -0.35736
N          N       0.94126   0.58467   0.36659  -0.35950
N          N       0.95426   0.46762   0.39880  -0.35914
N          N       0.96227   0.54356   0.28158  -0.35495
N          N       0.50668   0.04760   0.11620  -0.35811
N          N       0.58444   0.94121   0.10757  -0.36012
N          N       0.46756   0.95416   0.17942  -0.35902
N          N       0.54341   0.96217   0.21279  -0.35538
N          N       0.32961   0.11599   0.04743  -0.35765
N          N       0.36691   0.10750   0.94119  -0.36014
N          N       0.39884   0.17933   0.95406  -0.35800
N          N       0.28165   0.21274   0.96219  -0.35584
N          N       0.95255   0.88399   0.67041  -0.35787
N          N       0.05882   0.89250   0.63306  -0.36078
N          N       0.04589   0.82071   0.60117  -0.35840
N          N       0.03778   0.78728   0.71836  -0.35561
N          N       0.88376   0.95238   0.49335  -0.35709
N          N       0.89244   0.05880   0.41556  -0.36009
N          N       0.82061   0.04580   0.53244  -0.35914
N          N       0.78721   0.03784   0.45658  -0.35551
N          N       0.67046   0.49315   0.95254  -0.35689
N          N       0.63336   0.41538   0.05875  -0.35952
N          N       0.60120   0.53238   0.04572  -0.35916
N          N       0.71841   0.45643   0.03776  -0.35445
N          N       0.49304   0.67044   0.88407  -0.35763
N          N       0.41539   0.63334   0.89267  -0.35918
N          N       0.53246   0.60131   0.82081  -0.35864
N          N       0.45651   0.71866   0.78757  -0.35614
N          N       0.67039   0.95258   0.88401  -0.35740
N          N       0.63308   0.05881   0.89250  -0.36070
N          N       0.60115   0.04595   0.82068  -0.35820
N          N       0.71834   0.03782   0.78727  -0.35521
N          N       0.49332   0.88381   0.95240  -0.35834
N          N       0.41556   0.89243   0.05879  -0.36051
N          N       0.53243   0.82058   0.04584  -0.35880
N          N       0.45658   0.78721   0.03783  -0.35539
N          N       0.95256   0.67043   0.49310  -0.35760
N          N       0.05874   0.63341   0.41534  -0.35904
N          N       0.04573   0.60120   0.53238  -0.35909
N          N       0.03772   0.71842   0.45644  -0.35506
N          N       0.88407   0.49304   0.67041  -0.35738
N          N       0.89268   0.41536   0.63340  -0.35933
N          N       0.82079   0.53248   0.60129  -0.35930
N          N       0.78757   0.45651   0.71865  -0.35595
N          N       0.88397   0.67039   0.95258  -0.35684
N          N       0.89251   0.63308   0.05882  -0.36010
N          N       0.82070   0.60115   0.04592  -0.35810
N          N       0.78728   0.71833   0.03781  -0.35542
N          N       0.95239   0.49336   0.88377  -0.35793
N          N       0.05880   0.41554   0.89243  -0.36020
N          N       0.04580   0.53245   0.82061  -0.35964
N          N       0.03780   0.45660   0.78722  -0.35469
N          N       0.49313   0.95257   0.67043  -0.35674
N          N       0.41536   0.05876   0.63338  -0.35948
N          N       0.53237   0.04575   0.60121  -0.35867
N          N       0.45643   0.03775   0.71842  -0.35470
N          N       0.67041   0.88405   0.49307  -0.35772
N          N       0.63337   0.89268   0.41536  -0.35969
N          N       0.60129   0.82080   0.53247  -0.35952
N          N       0.71865   0.78758   0.45650  -0.35558

