data_crystal

_audit_creation_method 'AiiDA-DDEC plugin'

_cell_length_a        13.60720
_cell_length_b        17.20420
_cell_length_c        52.00073

_cell_angle_alpha     90.00000
_cell_angle_beta     90.00000
_cell_angle_gamma     90.00000

_symmetry_space_group_name_Hall 'P 1'
_symmetry_space_group_name_H-M  'P 1'

loop_
_symmetry_equiv_pos_as_xyz
 'x,y,z'

loop_
_atom_site_label
_atom_site_type_symbol
_atom_site_fract_x
_atom_site_fract_y
_atom_site_fract_z
_atom_site_charge
Cd         Cd      0.67739   0.48307   0.16990   0.92336
Cd         Cd      0.90234   0.97678   0.16713   0.91134
Cd         Cd      0.64562   0.00013   0.99123   0.91077
Cd         Cd      0.32261   0.01693   0.66990   0.92342
Cd         Cd      0.09766   0.52322   0.66713   0.91130
Cd         Cd      0.35439   0.49987   0.49123   0.91069
Cd         Cd      0.17739   0.51693   0.33010   0.92332
Cd         Cd      0.40234   0.02322   0.33287   0.91139
Cd         Cd      0.14561  -0.00013   0.50877   0.91067
Cd         Cd      0.82261   0.98307   0.83010   0.92326
Cd         Cd      0.59766   0.47678   0.83286   0.91144
Cd         Cd      0.85438   0.50013   0.00877   0.91074
Cd         Cd      0.32261   0.51693   0.83010   0.92326
Cd         Cd      0.09766   0.02322   0.83286   0.91140
Cd         Cd      0.35438  -0.00013   0.00877   0.91078
Cd         Cd      0.67739   0.98307   0.33010   0.92331
Cd         Cd      0.90234   0.47678   0.33287   0.91138
Cd         Cd      0.64561   0.50013   0.50877   0.91069
Cd         Cd      0.82261   0.48307   0.66990   0.92340
Cd         Cd      0.59766   0.97678   0.66713   0.91136
Cd         Cd      0.85438   0.00013   0.49123   0.91066
Cd         Cd      0.17739   0.01693   0.16990   0.92335
Cd         Cd      0.40234   0.52322   0.16713   0.91136
Cd         Cd      0.14562   0.49987   0.99123   0.91074
H          H       0.90856   0.40642   0.14607   0.29818
H          H       0.67505   0.05820   0.13270   0.29803
H          H       0.87506   0.10021   0.21540   0.09474
H          H       0.88535   0.24371   0.22391   0.13487
H          H       0.90552   0.33389   0.18657   0.11459
H          H       0.90718   0.52454   0.12655   0.12426
H          H       0.89354   0.64637   0.10091   0.12123
H          H       0.88388   0.63656   0.05243   0.10419
H          H       0.91768   0.39739   0.05497   0.11188
H          H       0.92744   0.16802   0.06601   0.12715
H          H       0.92514   0.02204   0.06387   0.13285
H          H       0.91618   0.94664   0.10539   0.10082
H          H       0.63968   0.34107   0.21346   0.10469
H          H       0.63688   0.19422   0.21622   0.12515
H          H       0.65584   0.11740   0.17586   0.12592
H          H       0.66462   0.94890   0.10967   0.11113
H          H       0.65685   0.83498   0.08013   0.12755
H          H       0.65591   0.85848   0.03220   0.10457
H          H       0.67411   0.09676   0.04270   0.10441
H          H       0.68303   0.32397   0.06254   0.13274
H          H       0.67611   0.46973   0.06584   0.13207
H          H       0.66881   0.53024   0.10990   0.09609
H          H       0.50996   0.93699   0.15478   0.09955
H          H       0.37729   0.83762   0.15558   0.11811
H          H       0.42023   0.69705   0.15487   0.11734
H          H       0.72781   0.75631   0.15642   0.12410
H          H       0.36530   0.53878   0.25500   0.12335
H          H       0.56700   0.51068   0.31807   0.10245
H          H       0.70529   0.49929   0.28752   0.10763
H          H       0.67301   0.50449   0.23994   0.12323
H          H       0.02103   0.95142   0.98384   0.11086
H          H       0.15859   0.85595   0.98599   0.11564
H          H       0.12263   0.71357   0.98908   0.12017
H          H       0.81306   0.76458   0.99057   0.12151
H          H       0.09144   0.09358   0.64606   0.29805
H          H       0.32495   0.44180   0.63270   0.29795
H          H       0.12494   0.39979   0.71540   0.09439
H          H       0.11464   0.25629   0.72391   0.13467
H          H       0.09448   0.16611   0.68656   0.11450
H          H       0.09281   0.97546   0.62655   0.12402
H          H       0.10645   0.85363   0.60091   0.12129
H          H       0.11611   0.86345   0.55243   0.10422
H          H       0.08232   0.10259   0.55497   0.11199
H          H       0.07256   0.33198   0.56601   0.12732
H          H       0.07485   0.47797   0.56387   0.13310
H          H       0.08382   0.55336   0.60539   0.10083
H          H       0.36032   0.15894   0.71346   0.10464
H          H       0.36311   0.30578   0.71622   0.12503
H          H       0.34415   0.38260   0.67586   0.12590
H          H       0.33538   0.55110   0.60967   0.11107
H          H       0.34315   0.66502   0.58013   0.12742
H          H       0.34409   0.64151   0.53220   0.10463
H          H       0.32589   0.40327   0.54270   0.10447
H          H       0.31697   0.17602   0.56254   0.13288
H          H       0.32389   0.03026   0.56584   0.13222
H          H       0.33118   0.96975   0.60990   0.09596
H          H       0.49003   0.56301   0.65478   0.09952
H          H       0.62270   0.66238   0.65558   0.11800
H          H       0.57976   0.80294   0.65487   0.11709
H          H       0.27220   0.74369   0.65642   0.12415
H          H       0.63470   0.96122   0.75500   0.12335
H          H       0.43300   0.98932   0.81807   0.10237
H          H       0.29470   0.00071   0.78752   0.10771
H          H       0.32699   0.99551   0.73994   0.12346
H          H       0.97897   0.54859   0.48384   0.11084
H          H       0.84141   0.64405   0.48599   0.11567
H          H       0.87739   0.78641   0.48908   0.12024
H          H       0.18692   0.73541   0.49057   0.12138
H          H       0.40856   0.59358   0.35393   0.29822
H          H       0.17505   0.94180   0.36730   0.29809
H          H       0.37506   0.89979   0.28460   0.09485
H          H       0.38535   0.75629   0.27609   0.13502
H          H       0.40552   0.66611   0.31343   0.11462
H          H       0.40719   0.47546   0.37345   0.12438
H          H       0.39354   0.35363   0.39909   0.12126
H          H       0.38389   0.36345   0.44756   0.10420
H          H       0.41768   0.60259   0.44503   0.11172
H          H       0.42744   0.83198   0.43399   0.12706
H          H       0.42514   0.97797   0.43613   0.13276
H          H       0.41618   0.05336   0.39461   0.10081
H          H       0.13968   0.65894   0.28654   0.10474
H          H       0.13688   0.80578   0.28378   0.12529
H          H       0.15585   0.88260   0.32414   0.12593
H          H       0.16462   0.05110   0.39033   0.11128
H          H       0.15685   0.16502   0.41987   0.12758
H          H       0.15591   0.14151   0.46780   0.10452
H          H       0.17411   0.90327   0.45729   0.10431
H          H       0.18303   0.67602   0.43746   0.13270
H          H       0.17611   0.53026   0.43416   0.13187
H          H       0.16881   0.46975   0.39010   0.09603
H          H       0.00997   0.06301   0.34522   0.09953
H          H       0.87729   0.16238   0.34442   0.11816
H          H       0.92024   0.30294   0.34513   0.11731
H          H       0.22780   0.24369   0.34358   0.12417
H          H       0.86530   0.46122   0.24500   0.12334
H          H       0.06700   0.48932   0.18193   0.10261
H          H       0.20530   0.50071   0.21248   0.10780
H          H       0.17301   0.49551   0.26006   0.12324
H          H       0.52103   0.04859   0.51615   0.11076
H          H       0.65859   0.14405   0.51401   0.11548
H          H       0.62261   0.28641   0.51092   0.12000
H          H       0.31308   0.23541   0.50943   0.12139
H          H       0.59144   0.90642   0.85393   0.29829
H          H       0.82495   0.55820   0.86730   0.29813
H          H       0.62493   0.60021   0.78460   0.09495
H          H       0.61464   0.74371   0.77609   0.13511
H          H       0.59447   0.83389   0.81343   0.11479
H          H       0.59281   0.02454   0.87344   0.12445
H          H       0.60645   0.14637   0.89909   0.12135
H          H       0.61611   0.13656   0.94756   0.10409
H          H       0.58232   0.89739   0.94503   0.11178
H          H       0.57255   0.66802   0.93399   0.12696
H          H       0.57485   0.52204   0.93612   0.13262
H          H       0.58382   0.44664   0.89461   0.10082
H          H       0.86031   0.84107   0.78653   0.10494
H          H       0.86311   0.69422   0.78378   0.12532
H          H       0.84415   0.61740   0.82413   0.12595
H          H       0.83538   0.44890   0.89032   0.11141
H          H       0.84314   0.33498   0.91986   0.12768
H          H       0.84409   0.35848   0.96780   0.10440
H          H       0.82588   0.59676   0.95730   0.10429
H          H       0.81696   0.82397   0.93746   0.13258
H          H       0.82389   0.96973   0.93415   0.13179
H          H       0.83118   0.03024   0.89009   0.09613
H          H       0.99003   0.43699   0.84522   0.09948
H          H       0.12271   0.33762   0.84442   0.11804
H          H       0.07977   0.19705   0.84513   0.11728
H          H       0.77218   0.25631   0.84357   0.12426
H          H       0.13470   0.03878   0.74500   0.12321
H          H       0.93300   0.01068   0.68193   0.10277
H          H       0.79470  -0.00071   0.71248   0.10791
H          H       0.82699   0.00449   0.76006   0.12325
H          H       0.47897   0.45142   0.01615   0.11091
H          H       0.34141   0.35595   0.01401   0.11574
H          H       0.37737   0.21357   0.01092   0.12017
H          H       0.68694   0.26458   0.00943   0.12140
H          H       0.09144   0.59358   0.85393   0.29829
H          H       0.32495   0.94180   0.86730   0.29811
H          H       0.12494   0.89979   0.78460   0.09497
H          H       0.11464   0.75629   0.77609   0.13511
H          H       0.09448   0.66611   0.81343   0.11483
H          H       0.09281   0.47546   0.87344   0.12442
H          H       0.10645   0.35363   0.89909   0.12135
H          H       0.11611   0.36344   0.94756   0.10408
H          H       0.08232   0.60261   0.94503   0.11177
H          H       0.07256   0.83198   0.93399   0.12698
H          H       0.07485   0.97796   0.93612   0.13260
H          H       0.08382   0.05336   0.89461   0.10084
H          H       0.36032   0.65893   0.78653   0.10494
H          H       0.36311   0.80578   0.78378   0.12535
H          H       0.34415   0.88260   0.82413   0.12592
H          H       0.33538   0.05110   0.89032   0.11143
H          H       0.34315   0.16502   0.91986   0.12768
H          H       0.34409   0.14152   0.96780   0.10439
H          H       0.32588   0.90324   0.95730   0.10426
H          H       0.31696   0.67603   0.93746   0.13255
H          H       0.32389   0.53027   0.93415   0.13182
H          H       0.33118   0.46976   0.89009   0.09613
H          H       0.49003   0.06301   0.84522   0.09949
H          H       0.62270   0.16238   0.84442   0.11799
H          H       0.57977   0.30295   0.84513   0.11720
H          H       0.27218   0.24369   0.84357   0.12420
H          H       0.63470   0.46122   0.74500   0.12317
H          H       0.43300   0.48932   0.68193   0.10274
H          H       0.29470   0.50071   0.71248   0.10788
H          H       0.32699   0.49551   0.76006   0.12323
H          H       0.97897   0.04858   0.01615   0.11092
H          H       0.84140   0.14405   0.01401   0.11576
H          H       0.87737   0.28643   0.01092   0.12021
H          H       0.18694   0.23542   0.00943   0.12144
H          H       0.90856   0.90642   0.35393   0.29822
H          H       0.67505   0.55820   0.36730   0.29809
H          H       0.87506   0.60021   0.28460   0.09485
H          H       0.88535   0.74371   0.27609   0.13505
H          H       0.90552   0.83389   0.31343   0.11464
H          H       0.90718   0.02454   0.37345   0.12439
H          H       0.89354   0.14637   0.39909   0.12127
H          H       0.88388   0.13655   0.44756   0.10419
H          H       0.91768   0.89741   0.44503   0.11171
H          H       0.92744   0.66802   0.43399   0.12706
H          H       0.92514   0.52203   0.43613   0.13278
H          H       0.91618   0.44664   0.39461   0.10080
H          H       0.63968   0.84106   0.28654   0.10477
H          H       0.63688   0.69422   0.28378   0.12529
H          H       0.65584   0.61740   0.32414   0.12593
H          H       0.66462   0.44890   0.39033   0.11127
H          H       0.65685   0.33498   0.41987   0.12757
H          H       0.65591   0.35849   0.46780   0.10453
H          H       0.67411   0.59673   0.45729   0.10434
H          H       0.68303   0.82398   0.43746   0.13269
H          H       0.67611   0.96974   0.43416   0.13185
H          H       0.66881   0.03025   0.39010   0.09603
H          H       0.50996   0.43699   0.34522   0.09952
H          H       0.37729   0.33762   0.34442   0.11809
H          H       0.42024   0.19706   0.34513   0.11724
H          H       0.72780   0.25631   0.34358   0.12414
H          H       0.36530   0.03878   0.24500   0.12331
H          H       0.56700   0.01068   0.18193   0.10261
H          H       0.70529  -0.00071   0.21248   0.10774
H          H       0.67301   0.00449   0.26006   0.12321
H          H       0.02103   0.45141   0.51615   0.11080
H          H       0.15859   0.35595   0.51401   0.11554
H          H       0.12261   0.21359   0.51092   0.12005
H          H       0.81308   0.26459   0.50943   0.12140
H          H       0.59144   0.40642   0.64606   0.29806
H          H       0.82495   0.05820   0.63270   0.29795
H          H       0.62493   0.10021   0.71540   0.09443
H          H       0.61464   0.24371   0.72391   0.13468
H          H       0.59447   0.33389   0.68656   0.11452
H          H       0.59281   0.52454   0.62655   0.12404
H          H       0.60645   0.64637   0.60091   0.12128
H          H       0.61611   0.63655   0.55243   0.10423
H          H       0.58232   0.39741   0.55497   0.11198
H          H       0.57255   0.16802   0.56601   0.12730
H          H       0.57485   0.02203   0.56387   0.13310
H          H       0.58382   0.94664   0.60539   0.10086
H          H       0.86031   0.34106   0.71346   0.10463
H          H       0.86311   0.19422   0.71622   0.12503
H          H       0.84415   0.11740   0.67586   0.12590
H          H       0.83538   0.94890   0.60967   0.11108
H          H       0.84314   0.83498   0.58013   0.12740
H          H       0.84409   0.85849   0.53220   0.10462
H          H       0.82588   0.09673   0.54270   0.10448
H          H       0.81696   0.32398   0.56254   0.13287
H          H       0.82389   0.46974   0.56584   0.13223
H          H       0.83118   0.53025   0.60990   0.09596
H          H       0.99003   0.93699   0.65478   0.09953
H          H       0.12271   0.83762   0.65558   0.11806
H          H       0.07976   0.69706   0.65487   0.11714
H          H       0.77219   0.75631   0.65642   0.12417
H          H       0.13470   0.53878   0.75500   0.12337
H          H       0.93300   0.51068   0.81807   0.10239
H          H       0.79470   0.49929   0.78752   0.10774
H          H       0.82699   0.50449   0.73994   0.12352
H          H       0.47897   0.95141   0.48384   0.11084
H          H       0.34141   0.85595   0.48599   0.11562
H          H       0.37739   0.71359   0.48908   0.12019
H          H       0.68691   0.76459   0.49057   0.12129
H          H       0.40856   0.09358   0.14607   0.29818
H          H       0.17505   0.44180   0.13270   0.29802
H          H       0.37506   0.39979   0.21540   0.09473
H          H       0.38535   0.25629   0.22391   0.13486
H          H       0.40552   0.16611   0.18657   0.11456
H          H       0.40719   0.97546   0.12655   0.12426
H          H       0.39354   0.85363   0.10091   0.12122
H          H       0.38388   0.86344   0.05243   0.10418
H          H       0.41768   0.10261   0.05497   0.11187
H          H       0.42744   0.33198   0.06601   0.12715
H          H       0.42514   0.47796   0.06387   0.13292
H          H       0.41618   0.55336   0.10539   0.10082
H          H       0.13968   0.15893   0.21346   0.10465
H          H       0.13688   0.30578   0.21622   0.12515
H          H       0.15585   0.38260   0.17586   0.12592
H          H       0.16462   0.55110   0.10967   0.11113
H          H       0.15685   0.66502   0.08013   0.12758
H          H       0.15591   0.64152   0.03220   0.10456
H          H       0.17411   0.40324   0.04270   0.10440
H          H       0.18303   0.17603   0.06254   0.13275
H          H       0.17611   0.03027   0.06584   0.13207
H          H       0.16882   0.96976   0.10990   0.09607
H          H       0.00996   0.56301   0.15478   0.09951
H          H       0.87729   0.66238   0.15558   0.11816
H          H       0.92023   0.80295   0.15487   0.11739
H          H       0.22781   0.74369   0.15642   0.12413
H          H       0.86530   0.96122   0.25500   0.12337
H          H       0.06700   0.98932   0.31807   0.10250
H          H       0.20530   0.00071   0.28752   0.10769
H          H       0.17301   0.99551   0.23994   0.12329
H          H       0.52103   0.54858   0.98384   0.11086
H          H       0.65859   0.64405   0.98599   0.11562
H          H       0.62262   0.78643   0.98908   0.12014
H          H       0.31306   0.73542   0.99057   0.12147
C          C       0.88447   0.14145   0.19972   0.09425
C          C       0.88989   0.22160   0.20433  -0.12849
C          C       0.90093   0.27144   0.18365  -0.06356
C          C       0.90632   0.24084   0.15852  -0.01778
C          C       0.91433   0.28543   0.13557   0.07451
C          C       0.92028   0.37574   0.10536   0.28847
C          C       0.91577   0.45095   0.09271  -0.03349
C          C       0.90785   0.52219   0.10564  -0.07951
C          C       0.89839   0.59030   0.09131  -0.12732
C          C       0.89406   0.58562   0.06457   0.07801
C          C       0.91274   0.45160   0.06569   0.07192
C          C       0.91911   0.25206   0.11094   0.08704
C          C       0.91756   0.16961   0.10753  -0.00218
C          C       0.92230   0.13274   0.08336  -0.04136
C          C       0.92097   0.05232   0.08222  -0.13213
C          C       0.91539   0.00995   0.10523   0.09425
C          C       0.90997   0.12281   0.12997   0.10449
C          C       0.90225   0.15830   0.15547   0.11657
C          C       0.64649   0.30493   0.19635   0.09405
C          C       0.64522   0.22333   0.19775  -0.12936
C          C       0.65493   0.18061   0.17534  -0.07404
C          C       0.66378   0.21961   0.15160  -0.01810
C          C       0.67093   0.18285   0.12715   0.07694
C          C       0.67456   0.10346   0.09367   0.28238
C          C       0.67153   0.03252   0.07847  -0.03132
C          C       0.66607   0.95748   0.08896  -0.07996
C          C       0.66127   0.89371   0.07247  -0.13126
C          C       0.66053   0.90600   0.04597   0.08453
C          C       0.67081   0.03953   0.05157   0.06819
C          C       0.67511   0.22451   0.10393   0.09719
C          C       0.67496   0.30782   0.10373  -0.00080
C          C       0.67851   0.35296   0.08111  -0.03803
C          C       0.67523   0.43322   0.08296  -0.12577
C          C       0.67104   0.46741   0.10745   0.09430
C          C       0.67015   0.34672   0.12784   0.10457
C          C       0.66363   0.30277   0.15180   0.10889
C          C       0.62755   0.85310   0.15476  -0.05661
C          C       0.52849   0.87559   0.15459  -0.09409
C          C       0.45412   0.81957   0.15488  -0.09058
C          C       0.47826   0.74056   0.15474  -0.08552
C          C       0.57747   0.71751   0.15507  -0.04757
C          C       0.65130   0.77396   0.15543  -0.10255
C          C       0.70879   0.91166   0.15546   0.56307
C          C       0.60597   0.63357   0.15591   0.57342
C          C       0.51745   0.52343   0.24479  -0.04446
C          C       0.43954   0.53039   0.26216  -0.11255
C          C       0.45654   0.52446   0.28863  -0.05193
C          C       0.55293   0.51496   0.29758  -0.09854
C          C       0.63110   0.50859   0.28026  -0.09175
C          C       0.61361   0.51152   0.25382  -0.08627
C          C       0.49554   0.52320   0.21665   0.57081
C          C       0.37116   0.52489   0.30678   0.56354
C          C       0.90780   0.86375   0.98585  -0.04766
C          C       0.00580   0.88940   0.98499  -0.08777
C          C       0.08279   0.83559   0.98625  -0.08813
C          C       0.06308   0.75600   0.98857  -0.09513
C          C       0.96534   0.73037   0.99066  -0.04768
C          C       0.88860   0.78442   0.98905  -0.11634
C          C       0.82315   0.91974   0.98439   0.53791
C          C       0.94054   0.64690   0.99575   0.56208
C          C       0.11553   0.35855   0.69971   0.09451
C          C       0.11011   0.27840   0.70433  -0.12855
C          C       0.09906   0.22856   0.68365  -0.06341
C          C       0.09367   0.25917   0.65852  -0.01786
C          C       0.08567   0.21458   0.63557   0.07444
C          C       0.07972   0.12426   0.60536   0.28860
C          C       0.08422   0.04905   0.59271  -0.03361
C          C       0.09215   0.97782   0.60564  -0.07956
C          C       0.10160   0.90970   0.59131  -0.12748
C          C       0.10594   0.91439   0.56457   0.07810
C          C       0.08725   0.04839   0.56569   0.07185
C          C       0.08088   0.24794   0.61094   0.08718
C          C       0.08243   0.33038   0.60753  -0.00218
C          C       0.07769   0.36726   0.58336  -0.04149
C          C       0.07903   0.44768   0.58221  -0.13206
C          C       0.08460   0.49005   0.60523   0.09420
C          C       0.09002   0.37719   0.62996   0.10472
C          C       0.09774   0.34170   0.65547   0.11653
C          C       0.35351   0.19507   0.69635   0.09390
C          C       0.35478   0.27667   0.69775  -0.12959
C          C       0.34507   0.31938   0.67534  -0.07387
C          C       0.33622   0.28039   0.65160  -0.01818
C          C       0.32907   0.31714   0.62715   0.07692
C          C       0.32543   0.39654   0.59367   0.28214
C          C       0.32847   0.46748   0.57848  -0.03127
C          C       0.33393   0.54252   0.58896  -0.08011
C          C       0.33872   0.60628   0.57247  -0.13123
C          C       0.33946   0.59400   0.54597   0.08466
C          C       0.32919   0.46047   0.55157   0.06816
C          C       0.32488   0.27549   0.60393   0.09710
C          C       0.32504   0.19219   0.60373  -0.00081
C          C       0.32149   0.14705   0.58111  -0.03804
C          C       0.32476   0.06678   0.58296  -0.12573
C          C       0.32896   0.03259   0.60744   0.09446
C          C       0.32985   0.15328   0.62784   0.10471
C          C       0.33637   0.19723   0.65179   0.10905
C          C       0.37245   0.64689   0.65476  -0.05656
C          C       0.47151   0.62441   0.65459  -0.09396
C          C       0.54587   0.68043   0.65488  -0.09073
C          C       0.52173   0.75944   0.65474  -0.08534
C          C       0.42253   0.78249   0.65506  -0.04742
C          C       0.34871   0.72604   0.65543  -0.10254
C          C       0.29120   0.58834   0.65546   0.56291
C          C       0.39403   0.86642   0.65591   0.57316
C          C       0.48255   0.97657   0.74479  -0.04417
C          C       0.56046   0.96961   0.76216  -0.11265
C          C       0.54345   0.97554   0.78863  -0.05200
C          C       0.44707   0.98504   0.79757  -0.09869
C          C       0.36890   0.99141   0.78026  -0.09166
C          C       0.38639   0.98848   0.75381  -0.08636
C          C       0.50446   0.97679   0.71665   0.57059
C          C       0.62884   0.97511   0.80678   0.56381
C          C       0.09221   0.63625   0.48585  -0.04761
C          C       0.99421   0.61061   0.48499  -0.08779
C          C       0.91722   0.66441   0.48625  -0.08787
C          C       0.93692   0.74400   0.48858  -0.09524
C          C       0.03466   0.76963   0.49066  -0.04762
C          C       0.11137   0.71557   0.48905  -0.11639
C          C       0.17684   0.58026   0.48439   0.53772
C          C       0.05945   0.85310   0.49575   0.56197
C          C       0.38447   0.85855   0.30028   0.09427
C          C       0.38989   0.77840   0.29567  -0.12842
C          C       0.40093   0.72856   0.31635  -0.06356
C          C       0.40632   0.75917   0.34148  -0.01772
C          C       0.41433   0.71458   0.36443   0.07451
C          C       0.42028   0.62426   0.39463   0.28880
C          C       0.41577   0.54905   0.40729  -0.03352
C          C       0.40785   0.47782   0.39436  -0.07950
C          C       0.39839   0.40970   0.40869  -0.12715
C          C       0.39406   0.41439   0.43542   0.07787
C          C       0.41274   0.54839   0.43431   0.07213
C          C       0.41912   0.74794   0.38906   0.08705
C          C       0.41756   0.83038   0.39247  -0.00221
C          C       0.42230   0.86726   0.41664  -0.04135
C          C       0.42097   0.94768   0.41778  -0.13235
C          C       0.41540   0.99005   0.39477   0.09423
C          C       0.40997   0.87719   0.37003   0.10465
C          C       0.40225   0.84170   0.34453   0.11643
C          C       0.14649   0.69507   0.30365   0.09417
C          C       0.14522   0.77667   0.30225  -0.12932
C          C       0.15493   0.81938   0.32466  -0.07419
C          C       0.16378   0.78039   0.34839  -0.01795
C          C       0.17093   0.81714   0.37285   0.07702
C          C       0.17456   0.89654   0.40633   0.28202
C          C       0.17153   0.96748   0.42152  -0.03121
C          C       0.16607   0.04252   0.41104  -0.07987
C          C       0.16128   0.10628   0.42753  -0.13123
C          C       0.16053   0.09400   0.45403   0.08451
C          C       0.17081   0.96047   0.44843   0.06829
C          C       0.17511   0.77549   0.39607   0.09710
C          C       0.17496   0.69219   0.39627  -0.00087
C          C       0.17851   0.64705   0.41888  -0.03801
C          C       0.17524   0.56678   0.41703  -0.12586
C          C       0.17104   0.53259   0.39255   0.09440
C          C       0.17015   0.65328   0.37216   0.10457
C          C       0.16363   0.69723   0.34820   0.10874
C          C       0.12755   0.14689   0.34524  -0.05659
C          C       0.02849   0.12441   0.34540  -0.09416
C          C       0.95412   0.18043   0.34512  -0.09052
C          C       0.97826   0.25944   0.34526  -0.08560
C          C       0.07747   0.28249   0.34493  -0.04758
C          C       0.15129   0.22604   0.34457  -0.10258
C          C       0.20880   0.08834   0.34454   0.56305
C          C       0.10597   0.36642   0.34409   0.57342
C          C       0.01745   0.47657   0.25520  -0.04435
C          C       0.93953   0.46961   0.23784  -0.11270
C          C       0.95654   0.47554   0.21137  -0.05191
C          C       0.05293   0.48504   0.20242  -0.09865
C          C       0.13110   0.49141   0.21974  -0.09176
C          C       0.11361   0.48848   0.24618  -0.08642
C          C       0.99553   0.47679   0.28335   0.57071
C          C       0.87115   0.47511   0.19322   0.56358
C          C       0.40779   0.13625   0.51415  -0.04759
C          C       0.50579   0.11061   0.51501  -0.08764
C          C       0.58278   0.16441   0.51375  -0.08796
C          C       0.56307   0.24400   0.51142  -0.09510
C          C       0.46534   0.26963   0.50934  -0.04757
C          C       0.38863   0.21557   0.51094  -0.11616
C          C       0.32316   0.08026   0.51561   0.53780
C          C       0.44055   0.35310   0.50425   0.56183
C          C       0.61553   0.64145   0.80028   0.09434
C          C       0.61010   0.72160   0.79567  -0.12830
C          C       0.59906   0.77144   0.81635  -0.06370
C          C       0.59367   0.74084   0.84148  -0.01790
C          C       0.58567   0.78543   0.86443   0.07470
C          C       0.57972   0.87574   0.89463   0.28873
C          C       0.58422   0.95095   0.90729  -0.03352
C          C       0.59215   0.02219   0.89435  -0.07924
C          C       0.60160   0.09030   0.90869  -0.12731
C          C       0.60594   0.08562   0.93542   0.07793
C          C       0.58725   0.95160   0.93431   0.07195
C          C       0.58088   0.75206   0.88906   0.08698
C          C       0.58243   0.66961   0.89247  -0.00218
C          C       0.57769   0.63274   0.91664  -0.04146
C          C       0.57902   0.55232   0.91778  -0.13233
C          C       0.58460   0.50995   0.89477   0.09418
C          C       0.59002   0.62281   0.87003   0.10457
C          C       0.59774   0.65830   0.84453   0.11663
C          C       0.85351   0.80493   0.80364   0.09405
C          C       0.85478   0.72333   0.80225  -0.12904
C          C       0.84506   0.68061   0.82466  -0.07427
C          C       0.83622   0.71961   0.84839  -0.01807
C          C       0.82907   0.68285   0.87285   0.07710
C          C       0.82543   0.60346   0.90633   0.28193
C          C       0.82847   0.53252   0.92152  -0.03097
C          C       0.83393   0.45748   0.91104  -0.07996
C          C       0.83872   0.39371   0.92753  -0.13131
C          C       0.83946   0.40600   0.95403   0.08468
C          C       0.82918   0.53953   0.94843   0.06821
C          C       0.82488   0.72451   0.89607   0.09728
C          C       0.82504   0.80782   0.89627  -0.00089
C          C       0.82149   0.85296   0.91889  -0.03811
C          C       0.82476   0.93322   0.91703  -0.12604
C          C       0.82895   0.96741   0.89255   0.09441
C          C       0.82985   0.84672   0.87216   0.10451
C          C       0.83637   0.80277   0.84820   0.10890
C          C       0.87245   0.35310   0.84524  -0.05642
C          C       0.97151   0.37559   0.84540  -0.09414
C          C       0.04588   0.31957   0.84512  -0.09054
C          C       0.02174   0.24056   0.84526  -0.08563
C          C       0.92253   0.21751   0.84493  -0.04761
C          C       0.84870   0.27396   0.84457  -0.10259
C          C       0.79120   0.41166   0.84454   0.56280
C          C       0.89403   0.13357   0.84409   0.57329
C          C       0.98255   0.02343   0.75520  -0.04437
C          C       0.06046   0.03039   0.73783  -0.11267
C          C       0.04346   0.02446   0.71137  -0.05210
C          C       0.94707   0.01496   0.70242  -0.09866
C          C       0.86890   0.00859   0.71974  -0.09160
C          C       0.88639   0.01152   0.74618  -0.08649
C          C       0.00446   0.02320   0.78335   0.57096
C          C       0.12884   0.02489   0.69322   0.56359
C          C       0.59220   0.36375   0.01415  -0.04748
C          C       0.49420   0.38940   0.01501  -0.08778
C          C       0.41721   0.33559   0.01375  -0.08814
C          C       0.43692   0.25600   0.01142  -0.09508
C          C       0.53466   0.23037   0.00934  -0.04767
C          C       0.61139   0.28442   0.01094  -0.11643
C          C       0.67684   0.41974   0.01561   0.53802
C          C       0.55946   0.14690   0.00425   0.56216
C          C       0.11553   0.85855   0.80028   0.09430
C          C       0.11010   0.77840   0.79567  -0.12827
C          C       0.09906   0.72856   0.81635  -0.06379
C          C       0.09367   0.75916   0.84148  -0.01791
C          C       0.08567   0.71457   0.86443   0.07465
C          C       0.07972   0.62426   0.89463   0.28873
C          C       0.08422   0.54905   0.90729  -0.03349
C          C       0.09215   0.47781   0.89435  -0.07925
C          C       0.10160   0.40970   0.90869  -0.12724
C          C       0.10594   0.41438   0.93542   0.07788
C          C       0.08725   0.54840   0.93431   0.07192
C          C       0.08088   0.74794   0.88906   0.08707
C          C       0.08243   0.83039   0.89247  -0.00223
C          C       0.07769   0.86726   0.91664  -0.04148
C          C       0.07903   0.94768   0.91778  -0.13231
C          C       0.08460   0.99005   0.89477   0.09413
C          C       0.09002   0.87719   0.87003   0.10457
C          C       0.09774   0.84170   0.84453   0.11665
C          C       0.35351   0.69507   0.80364   0.09409
C          C       0.35478   0.77667   0.80225  -0.12911
C          C       0.34506   0.81939   0.82466  -0.07421
C          C       0.33622   0.78039   0.84839  -0.01810
C          C       0.32907   0.81715   0.87285   0.07710
C          C       0.32543   0.89654   0.90633   0.28200
C          C       0.32847   0.96748   0.92152  -0.03109
C          C       0.33393   0.04252   0.91104  -0.07992
C          C       0.33872   0.10629   0.92753  -0.13131
C          C       0.33946   0.09400   0.95403   0.08462
C          C       0.32919   0.96047   0.94843   0.06827
C          C       0.32489   0.77549   0.89607   0.09733
C          C       0.32504   0.69218   0.89627  -0.00088
C          C       0.32149   0.64704   0.91889  -0.03808
C          C       0.32476   0.56678   0.91703  -0.12605
C          C       0.32896   0.53259   0.89255   0.09440
C          C       0.32985   0.65328   0.87216   0.10446
C          C       0.33637   0.69723   0.84820   0.10893
C          C       0.37245   0.14690   0.84524  -0.05646
C          C       0.47151   0.12441   0.84540  -0.09411
C          C       0.54587   0.18043   0.84512  -0.09052
C          C       0.52174   0.25944   0.84526  -0.08552
C          C       0.42253   0.28249   0.84493  -0.04753
C          C       0.34870   0.22604   0.84457  -0.10256
C          C       0.29120   0.08834   0.84454   0.56287
C          C       0.39403   0.36643   0.84409   0.57334
C          C       0.48255   0.47657   0.75520  -0.04424
C          C       0.56046   0.46961   0.73783  -0.11270
C          C       0.54346   0.47554   0.71137  -0.05204
C          C       0.44707   0.48504   0.70242  -0.09850
C          C       0.36890   0.49141   0.71974  -0.09169
C          C       0.38639   0.48848   0.74618  -0.08652
C          C       0.50446   0.47680   0.78335   0.57104
C          C       0.62884   0.47511   0.69322   0.56360
C          C       0.09220   0.13625   0.01415  -0.04753
C          C       0.99420   0.11060   0.01501  -0.08787
C          C       0.91721   0.16441   0.01375  -0.08807
C          C       0.93691   0.24400   0.01142  -0.09516
C          C       0.03466   0.26963   0.00934  -0.04773
C          C       0.11139   0.21558   0.01094  -0.11630
C          C       0.17684   0.08026   0.01561   0.53803
C          C       0.05946   0.35310   0.00425   0.56193
C          C       0.88447   0.64145   0.30028   0.09430
C          C       0.88989   0.72160   0.29567  -0.12847
C          C       0.90093   0.77144   0.31635  -0.06353
C          C       0.90632   0.74083   0.34148  -0.01780
C          C       0.91433   0.78542   0.36443   0.07455
C          C       0.92028   0.87574   0.39463   0.28879
C          C       0.91577   0.95095   0.40729  -0.03352
C          C       0.90785   0.02218   0.39436  -0.07955
C          C       0.89839   0.09030   0.40869  -0.12710
C          C       0.89406   0.08561   0.43542   0.07780
C          C       0.91274   0.95161   0.43431   0.07211
C          C       0.91912   0.75206   0.38906   0.08702
C          C       0.91756   0.66962   0.39247  -0.00218
C          C       0.92230   0.63274   0.41664  -0.04136
C          C       0.92097   0.55233   0.41778  -0.13238
C          C       0.91539   0.50995   0.39477   0.09424
C          C       0.90997   0.62281   0.37003   0.10462
C          C       0.90225   0.65830   0.34453   0.11644
C          C       0.64649   0.80493   0.30365   0.09409
C          C       0.64521   0.72333   0.30225  -0.12929
C          C       0.65493   0.68062   0.32466  -0.07416
C          C       0.66378   0.71961   0.34839  -0.01794
C          C       0.67093   0.68286   0.37285   0.07701
C          C       0.67456   0.60346   0.40633   0.28205
C          C       0.67153   0.53252   0.42152  -0.03123
C          C       0.66607   0.45748   0.41104  -0.07984
C          C       0.66127   0.39372   0.42753  -0.13124
C          C       0.66053   0.40600   0.45403   0.08454
C          C       0.67081   0.53953   0.44843   0.06827
C          C       0.67511   0.72451   0.39607   0.09713
C          C       0.67496   0.80781   0.39627  -0.00087
C          C       0.67851   0.85295   0.41888  -0.03800
C          C       0.67524   0.93322   0.41703  -0.12588
C          C       0.67104   0.96741   0.39255   0.09446
C          C       0.67015   0.84672   0.37216   0.10459
C          C       0.66363   0.80277   0.34820   0.10874
C          C       0.62755   0.35311   0.34524  -0.05658
C          C       0.52849   0.37559   0.34540  -0.09411
C          C       0.45413   0.31957   0.34512  -0.09045
C          C       0.47826   0.24056   0.34526  -0.08555
C          C       0.57747   0.21751   0.34493  -0.04749
C          C       0.65129   0.27396   0.34457  -0.10260
C          C       0.70880   0.41166   0.34454   0.56300
C          C       0.60596   0.13358   0.34409   0.57341
C          C       0.51745   0.02343   0.25520  -0.04430
C          C       0.43953   0.03039   0.23784  -0.11268
C          C       0.45654   0.02446   0.21137  -0.05186
C          C       0.55293   0.01496   0.20242  -0.09860
C          C       0.63110   0.00859   0.21974  -0.09174
C          C       0.61361   0.01152   0.24618  -0.08643
C          C       0.49553   0.02321   0.28335   0.57081
C          C       0.37115   0.02489   0.19322   0.56357
C          C       0.90779   0.36375   0.51415  -0.04776
C          C       0.00579   0.38939   0.51501  -0.08767
C          C       0.08278   0.33559   0.51375  -0.08794
C          C       0.06307   0.25600   0.51142  -0.09519
C          C       0.96534   0.23037   0.50934  -0.04767
C          C       0.88863   0.28443   0.51094  -0.11603
C          C       0.82316   0.41974   0.51561   0.53782
C          C       0.94055   0.14690   0.50425   0.56176
C          C       0.61553   0.14145   0.69971   0.09445
C          C       0.61010   0.22160   0.70433  -0.12852
C          C       0.59906   0.27144   0.68365  -0.06350
C          C       0.59367   0.24083   0.65852  -0.01777
C          C       0.58567   0.28542   0.63557   0.07442
C          C       0.57972   0.37574   0.60536   0.28863
C          C       0.58422   0.45095   0.59271  -0.03364
C          C       0.59215   0.52218   0.60564  -0.07956
C          C       0.60160   0.59030   0.59131  -0.12749
C          C       0.60594   0.58561   0.56457   0.07811
C          C       0.58725   0.45161   0.56569   0.07190
C          C       0.58088   0.25206   0.61094   0.08719
C          C       0.58243   0.16962   0.60753  -0.00214
C          C       0.57769   0.13274   0.58336  -0.04147
C          C       0.57902   0.05232   0.58221  -0.13206
C          C       0.58460   0.00995   0.60523   0.09419
C          C       0.59002   0.12281   0.62996   0.10470
C          C       0.59774   0.15830   0.65547   0.11655
C          C       0.85351   0.30493   0.69635   0.09387
C          C       0.85478   0.22333   0.69775  -0.12958
C          C       0.84506   0.18062   0.67534  -0.07388
C          C       0.83622   0.21961   0.65160  -0.01817
C          C       0.82907   0.18286   0.62715   0.07687
C          C       0.82543   0.10346   0.59367   0.28209
C          C       0.82847   0.03252   0.57848  -0.03119
C          C       0.83393   0.95748   0.58896  -0.08013
C          C       0.83872   0.89372   0.57247  -0.13121
C          C       0.83946   0.90600   0.54597   0.08462
C          C       0.82919   0.03953   0.55157   0.06810
C          C       0.82488   0.22451   0.60393   0.09717
C          C       0.82504   0.30781   0.60373  -0.00081
C          C       0.82149   0.35295   0.58111  -0.03795
C          C       0.82476   0.43322   0.58296  -0.12582
C          C       0.82895   0.46741   0.60744   0.09446
C          C       0.82985   0.34672   0.62784   0.10467
C          C       0.83637   0.30277   0.65179   0.10905
C          C       0.87245   0.85311   0.65476  -0.05663
C          C       0.97151   0.87559   0.65459  -0.09402
C          C       0.04587   0.81957   0.65488  -0.09072
C          C       0.02173   0.74056   0.65474  -0.08542
C          C       0.92253   0.71751   0.65506  -0.04763
C          C       0.84871   0.77396   0.65543  -0.10238
C          C       0.79120   0.91166   0.65546   0.56297
C          C       0.89403   0.63358   0.65591   0.57314
C          C       0.98254   0.52343   0.74479  -0.04423
C          C       0.06046   0.53039   0.76216  -0.11261
C          C       0.04346   0.52446   0.78863  -0.05205
C          C       0.94707   0.51496   0.79757  -0.09883
C          C       0.86890   0.50859   0.78026  -0.09157
C          C       0.88639   0.51152   0.75381  -0.08642
C          C       0.00446   0.52321   0.71665   0.57038
C          C       0.12884   0.52489   0.80678   0.56382
C          C       0.59221   0.86375   0.48585  -0.04747
C          C       0.49421   0.88939   0.48499  -0.08771
C          C       0.41722   0.83559   0.48625  -0.08790
C          C       0.43692   0.75600   0.48858  -0.09523
C          C       0.53466   0.73037   0.49066  -0.04753
C          C       0.61137   0.78443   0.48905  -0.11639
C          C       0.67684   0.91974   0.48439   0.53771
C          C       0.55945   0.64690   0.49575   0.56209
C          C       0.38447   0.35855   0.19972   0.09416
C          C       0.38989   0.27840   0.20433  -0.12849
C          C       0.40093   0.22856   0.18365  -0.06345
C          C       0.40633   0.25916   0.15852  -0.01780
C          C       0.41433   0.21457   0.13557   0.07445
C          C       0.42028   0.12426   0.10536   0.28854
C          C       0.41577   0.04905   0.09271  -0.03348
C          C       0.40785   0.97781   0.10564  -0.07959
C          C       0.39839   0.90970   0.09131  -0.12726
C          C       0.39406   0.91438   0.06457   0.07801
C          C       0.41274   0.04840   0.06569   0.07195
C          C       0.41912   0.24794   0.11094   0.08706
C          C       0.41756   0.33039   0.10753  -0.00220
C          C       0.42231   0.36726   0.08336  -0.04130
C          C       0.42097   0.44768   0.08222  -0.13222
C          C       0.41540   0.49005   0.10523   0.09423
C          C       0.40997   0.37719   0.12997   0.10449
C          C       0.40225   0.34170   0.15547   0.11664
C          C       0.14649   0.19507   0.19635   0.09403
C          C       0.14522   0.27667   0.19775  -0.12939
C          C       0.15493   0.31939   0.17534  -0.07401
C          C       0.16378   0.28039   0.15160  -0.01815
C          C       0.17093   0.31715   0.12715   0.07697
C          C       0.17456   0.39654   0.09367   0.28233
C          C       0.17153   0.46748   0.07847  -0.03129
C          C       0.16607   0.54252   0.08896  -0.07997
C          C       0.16128   0.60629   0.07247  -0.13128
C          C       0.16053   0.59400   0.04597   0.08452
C          C       0.17081   0.46047   0.05157   0.06817
C          C       0.17511   0.27549   0.10393   0.09717
C          C       0.17496   0.19218   0.10373  -0.00082
C          C       0.17851   0.14704   0.08111  -0.03802
C          C       0.17524   0.06678   0.08296  -0.12578
C          C       0.17104   0.03259   0.10745   0.09433
C          C       0.17015   0.15328   0.12784   0.10454
C          C       0.16363   0.19723   0.15180   0.10890
C          C       0.12755   0.64690   0.15476  -0.05665
C          C       0.02849   0.62441   0.15459  -0.09412
C          C       0.95412   0.68043   0.15488  -0.09057
C          C       0.97826   0.75944   0.15474  -0.08556
C          C       0.07747   0.78249   0.15507  -0.04775
C          C       0.15130   0.72604   0.15543  -0.10247
C          C       0.20879   0.58834   0.15546   0.56305
C          C       0.10597   0.86643   0.15591   0.57343
C          C       0.01745   0.97657   0.24479  -0.04459
C          C       0.93953   0.96961   0.26216  -0.11245
C          C       0.95654   0.97554   0.28863  -0.05203
C          C       0.05293   0.98504   0.29758  -0.09869
C          C       0.13110   0.99141   0.28026  -0.09172
C          C       0.11361   0.98848   0.25382  -0.08628
C          C       0.99554   0.97680   0.21665   0.57074
C          C       0.87115   0.97511   0.30678   0.56363
C          C       0.40780   0.63625   0.98585  -0.04756
C          C       0.50580   0.61060   0.98499  -0.08772
C          C       0.58279   0.66441   0.98625  -0.08817
C          C       0.56308   0.74400   0.98857  -0.09511
C          C       0.46534   0.76963   0.99066  -0.04757
C          C       0.38861   0.71558   0.98905  -0.11640
C          C       0.32315   0.58026   0.98439   0.53787
C          C       0.44054   0.85310   0.99575   0.56216
N          N       0.89073   0.11121   0.17610  -0.27683
N          N       0.90980   0.04425   0.12823  -0.26971
N          N       0.65583   0.34307   0.17410  -0.27303
N          N       0.66970   0.42568   0.12912  -0.28313
N          N       0.92310   0.30841   0.09246  -0.36668
N          N       0.91612   0.36445   0.13165  -0.29361
N          N       0.67733   0.17479   0.08340  -0.37048
N          N       0.67081   0.10552   0.12023  -0.28935
N          N       0.90083   0.51696   0.05208  -0.23217
N          N       0.66470   0.97815   0.03584  -0.22468
N          N       0.10927   0.38879   0.67610  -0.27688
N          N       0.09019   0.45575   0.62823  -0.27000
N          N       0.34417   0.15693   0.67410  -0.27306
N          N       0.33030   0.07432   0.62912  -0.28342
N          N       0.07690   0.19159   0.59246  -0.36646
N          N       0.08388   0.13555   0.63165  -0.29372
N          N       0.32266   0.32521   0.58340  -0.36998
N          N       0.32918   0.39447   0.62024  -0.28933
N          N       0.09916   0.98303   0.55207  -0.23188
N          N       0.33529   0.52186   0.53584  -0.22445
N          N       0.39073   0.88879   0.32390  -0.27678
N          N       0.40980   0.95575   0.37177  -0.26959
N          N       0.15583   0.65693   0.32590  -0.27292
N          N       0.16970   0.57432   0.37088  -0.28297
N          N       0.42310   0.69159   0.40754  -0.36712
N          N       0.41612   0.63555   0.36834  -0.29354
N          N       0.17733   0.82521   0.41660  -0.37063
N          N       0.17082   0.89448   0.37976  -0.28906
N          N       0.40084   0.48303   0.44792  -0.23245
N          N       0.16470   0.02186   0.46416  -0.22487
N          N       0.60927   0.61121   0.82389  -0.27690
N          N       0.59019   0.54425   0.87177  -0.26942
N          N       0.84416   0.84307   0.82590  -0.27298
N          N       0.83029   0.92568   0.87088  -0.28287
N          N       0.57690   0.80841   0.90753  -0.36734
N          N       0.58387   0.86445   0.86834  -0.29344
N          N       0.82266   0.67479   0.91659  -0.37098
N          N       0.82918   0.60552   0.87976  -0.28901
N          N       0.59916   0.01696   0.94792  -0.23252
N          N       0.83529   0.47815   0.96416  -0.22522
N          N       0.10927   0.88879   0.82389  -0.27685
N          N       0.09019   0.95575   0.87177  -0.26938
N          N       0.34417   0.65693   0.82590  -0.27298
N          N       0.33030   0.57432   0.87088  -0.28284
N          N       0.07690   0.69159   0.90753  -0.36739
N          N       0.08388   0.63555   0.86834  -0.29346
N          N       0.32266   0.82521   0.91659  -0.37101
N          N       0.32918   0.89448   0.87976  -0.28898
N          N       0.09916   0.48304   0.94792  -0.23250
N          N       0.33529   0.02185   0.96416  -0.22515
N          N       0.89073   0.61121   0.32390  -0.27681
N          N       0.90980   0.54425   0.37177  -0.26957
N          N       0.65583   0.84307   0.32590  -0.27289
N          N       0.66970   0.92568   0.37088  -0.28301
N          N       0.92310   0.80841   0.40754  -0.36713
N          N       0.91612   0.86445   0.36834  -0.29356
N          N       0.67733   0.67479   0.41660  -0.37064
N          N       0.67081   0.60552   0.37976  -0.28906
N          N       0.90083   0.01697   0.44792  -0.23238
N          N       0.66470   0.47814   0.46416  -0.22490
N          N       0.60927   0.11121   0.67610  -0.27689
N          N       0.59019   0.04425   0.62823  -0.26999
N          N       0.84416   0.34307   0.67410  -0.27305
N          N       0.83029   0.42568   0.62912  -0.28344
N          N       0.57690   0.30841   0.59246  -0.36646
N          N       0.58387   0.36445   0.63165  -0.29373
N          N       0.82266   0.17479   0.58340  -0.36997
N          N       0.82918   0.10553   0.62024  -0.28935
N          N       0.59916   0.51697   0.55207  -0.23189
N          N       0.83529   0.97814   0.53584  -0.22440
N          N       0.39073   0.38879   0.17610  -0.27683
N          N       0.40980   0.45575   0.12823  -0.26969
N          N       0.15583   0.15693   0.17410  -0.27295
N          N       0.16970   0.07432   0.12912  -0.28314
N          N       0.42310   0.19159   0.09246  -0.36667
N          N       0.41612   0.13555   0.13165  -0.29362
N          N       0.17733   0.32521   0.08340  -0.37046
N          N       0.17082   0.39448   0.12023  -0.28934
N          N       0.40084   0.98304   0.05208  -0.23217
N          N       0.16470   0.52185   0.03584  -0.22467
O          O       0.69012   0.98422   0.15497  -0.59415
O          O       0.79599   0.88358   0.15688  -0.54256
O          O       0.54273   0.58155   0.14976  -0.61213
O          O       0.69364   0.61607   0.16257  -0.53786
O          O       0.41437   0.55406   0.20942  -0.54483
O          O       0.55493   0.48845   0.20165  -0.59773
O          O       0.28553   0.51972   0.29688  -0.53730
O          O       0.38582   0.52982   0.33100  -0.59508
O          O       0.73602   0.88977   0.98447  -0.57744
O          O       0.83834   0.99220   0.98326  -0.56862
O          O       0.85156   0.63249   0.00265  -0.56185
O          O       0.00497   0.59379   0.99351  -0.59925
O          O       0.30989   0.51577   0.65497  -0.59427
O          O       0.20401   0.61642   0.65688  -0.54222
O          O       0.45727   0.91845   0.64976  -0.61196
O          O       0.30636   0.88393   0.66257  -0.53775
O          O       0.58563   0.94594   0.70942  -0.54487
O          O       0.44506   0.01155   0.70165  -0.59756
O          O       0.71447   0.98028   0.79688  -0.53728
O          O       0.61417   0.97018   0.83100  -0.59546
O          O       0.26398   0.61024   0.48447  -0.57747
O          O       0.16165   0.50780   0.48326  -0.56839
O          O       0.14844   0.86749   0.50265  -0.56194
O          O       0.99502   0.90621   0.49351  -0.59899
O          O       0.19011   0.01577   0.34503  -0.59425
O          O       0.29599   0.11642   0.34312  -0.54243
O          O       0.04273   0.41845   0.35024  -0.61232
O          O       0.19364   0.38393   0.33743  -0.53773
O          O       0.91437   0.44594   0.29058  -0.54473
O          O       0.05493   0.51155   0.29835  -0.59790
O          O       0.78552   0.48028   0.20312  -0.53742
O          O       0.88582   0.47018   0.16900  -0.59486
O          O       0.23602   0.11024   0.51553  -0.57751
O          O       0.33835   0.00780   0.51674  -0.56851
O          O       0.35155   0.36749   0.49735  -0.56168
O          O       0.50497   0.40621   0.50649  -0.59909
O          O       0.80988   0.48422   0.84503  -0.59414
O          O       0.70401   0.38358   0.84311  -0.54234
O          O       0.95726   0.08155   0.85024  -0.61250
O          O       0.80636   0.11607   0.83743  -0.53741
O          O       0.08563   0.05406   0.79058  -0.54496
O          O       0.94507   0.98845   0.79835  -0.59798
O          O       0.21447   0.01972   0.70312  -0.53765
O          O       0.11417   0.02982   0.66900  -0.59458
O          O       0.76398   0.38977   0.01553  -0.57768
O          O       0.66166   0.49220   0.01674  -0.56864
O          O       0.64843   0.13249   0.99735  -0.56203
O          O       0.49503   0.09379   0.00649  -0.59911
O          O       0.30988   0.01578   0.84503  -0.59411
O          O       0.20401   0.11642   0.84311  -0.54243
O          O       0.45726   0.41845   0.85024  -0.61250
O          O       0.30636   0.38393   0.83743  -0.53750
O          O       0.58563   0.44594   0.79058  -0.54505
O          O       0.44507   0.51155   0.79835  -0.59796
O          O       0.71447   0.48028   0.70312  -0.53769
O          O       0.61417   0.47018   0.66900  -0.59456
O          O       0.26398   0.11023   0.01553  -0.57767
O          O       0.16166   0.00780   0.01674  -0.56867
O          O       0.14844   0.36751   0.99735  -0.56184
O          O       0.99503   0.40621   0.00649  -0.59910
O          O       0.69011   0.48423   0.34503  -0.59421
O          O       0.79599   0.38358   0.34312  -0.54244
O          O       0.54273   0.08155   0.35024  -0.61228
O          O       0.69364   0.11607   0.33743  -0.53779
O          O       0.41437   0.05406   0.29058  -0.54481
O          O       0.55493   0.98845   0.29835  -0.59790
O          O       0.28553   0.01972   0.20312  -0.53745
O          O       0.38582   0.02982   0.16900  -0.59484
O          O       0.73602   0.38976   0.51553  -0.57745
O          O       0.83835   0.49220   0.51674  -0.56855
O          O       0.85155   0.13251   0.49735  -0.56157
O          O       0.00498   0.09379   0.50649  -0.59911
O          O       0.80988   0.98423   0.65497  -0.59432
O          O       0.70401   0.88358   0.65688  -0.54221
O          O       0.95727   0.58155   0.64976  -0.61204
O          O       0.80636   0.61607   0.66257  -0.53763
O          O       0.08563   0.55406   0.70942  -0.54478
O          O       0.94506   0.48845   0.70165  -0.59745
O          O       0.21447   0.51972   0.79688  -0.53724
O          O       0.11417   0.52982   0.83100  -0.59548
O          O       0.76397   0.88976   0.48447  -0.57758
O          O       0.66165   0.99220   0.48326  -0.56837
O          O       0.64844   0.63251   0.50265  -0.56203
O          O       0.49502   0.59379   0.49351  -0.59900
O          O       0.19012   0.51578   0.15497  -0.59412
O          O       0.29599   0.61642   0.15688  -0.54251
O          O       0.04274   0.91845   0.14976  -0.61221
O          O       0.19364   0.88393   0.16257  -0.53775
O          O       0.91437   0.94594   0.20942  -0.54479
O          O       0.05493   0.01155   0.20165  -0.59771
O          O       0.78552   0.98028   0.29688  -0.53728
O          O       0.88582   0.97018   0.33100  -0.59513
O          O       0.23602   0.61023   0.98447  -0.57744
O          O       0.33834   0.50780   0.98326  -0.56860
O          O       0.35156   0.86751   0.00265  -0.56195
O          O       0.50497   0.90621   0.99351  -0.59926

