data_crystal

_audit_creation_method 'AiiDA-DDEC plugin'

_cell_length_a        23.14132
_cell_length_b        23.13908
_cell_length_c        23.14145

_cell_angle_alpha     109.51723
_cell_angle_beta     109.50062
_cell_angle_gamma     109.49442

_symmetry_space_group_name_Hall 'P 1'
_symmetry_space_group_name_H-M  'P 1'

loop_
_symmetry_equiv_pos_as_xyz
 'x,y,z'

loop_
_atom_site_label
_atom_site_type_symbol
_atom_site_fract_x
_atom_site_fract_y
_atom_site_fract_z
_atom_site_charge
Rb         Rb      0.26826   0.74971   0.51772   0.86965
Rb         Rb      0.23214   0.24985   0.98213   0.87031
Rb         Rb      0.75000   0.48220   0.23218   0.87019
Rb         Rb      0.24972   0.01772   0.26786   0.86996
Rb         Rb      0.51792   0.76811   0.24989   0.86975
Rb         Rb      0.98202   0.73196   0.74988   0.87002
Co         Co      0.00004   0.68535   0.50036   0.87164
Co         Co      0.50018   0.49992   0.18525   0.87058
Co         Co      0.31521   0.81506   0.31511   0.87161
Co         Co      0.18535   0.00016  -0.00013   0.87070
H          H       0.14959   0.54940   0.47014   0.10703
H          H       0.19754   0.73740   0.68227   0.09098
H          H       0.15512   0.65172   0.60892   0.09107
H          H       0.33359   0.60324   0.72267   0.09868
H          H       0.28574   0.59650   0.38364   0.11297
H          H       0.41842   0.82501   0.85901   0.09369
H          H       0.19267   0.57325   0.58375   0.10158
H          H       0.25553   0.54669   0.60638   0.09758
H          H       0.53251   0.75498   0.94132   0.11644
H          H       0.51668   0.81239   0.91121   0.11349
H          H       0.51658   0.73814   0.85484   0.12352
H          H       0.38667   0.89203   0.81896   0.09960
H          H       0.29818   0.84960   0.75247   0.10758
H          H       0.10974   0.61205   0.39217   0.12672
H          H       0.07928   0.57991   0.30040   0.12712
H          H       0.16873   0.64574   0.36238   0.12731
H          H       0.11195   0.49755   0.23382   0.12513
H          H       0.17993   0.48405   0.28038   0.11766
H          H       0.20011   0.56932   0.29026   0.12977
H          H       0.43443   0.63596   0.89753   0.12669
H          H       0.41989   0.61137   0.81043   0.11642
H          H       0.34823   0.59989   0.82709   0.12115
H          H       0.43107   0.73853   0.96913   0.11635
H          H       0.34524   0.70867   0.90155   0.12400
H          H       0.41529   0.79517   0.93825   0.11462
H          H       0.06411   0.48069   0.36600   0.11528
H          H       0.09402   0.42955   0.32155   0.12391
H          H       0.03502   0.45213   0.27528   0.11643
H          H       0.45537   0.62014   0.66727   0.11262
H          H       0.41714   0.56886   0.57320   0.08775
H          H       0.36571   0.54771   0.61364   0.08582
H          H       0.35045   0.32065   0.90001   0.10787
H          H       0.30292   0.48506   0.04029   0.09084
H          H       0.34473   0.45393   0.99643   0.09076
H          H       0.16647   0.38911   0.76997   0.09834
H          H       0.21394   0.09773   0.81075   0.11343
H          H       0.08200   0.44071   0.90696   0.09426
H          H       0.30738   0.39137   0.88102   0.10224
H          H       0.24447   0.35103   0.79148   0.09791
H          H       0.96751   0.40846   0.72274   0.11593
H          H       0.98373   0.39447   0.79615   0.11314
H          H       0.98343   0.33792   0.72189   0.12335
H          H       0.11392   0.43261   0.00583   0.10000
H          H       0.20239   0.45455   0.05186   0.10812
H          H       0.39033   0.28248   0.00246   0.12671
H          H       0.42054   0.22102   0.00064   0.12709
H          H       0.33119   0.19358   0.97703   0.12753
H          H       0.38758   0.12169   0.88545   0.12604
H          H       0.31953   0.10015   0.80389   0.11804
H          H       0.29954   0.08991   0.86908   0.13021
H          H       0.06536   0.46251   0.70137   0.12639
H          H       0.07982   0.38993   0.69149   0.11675
H          H       0.15154   0.47843   0.75153   0.12164
H          H       0.06912   0.53793   0.80750   0.11616
H          H       0.15503   0.55635   0.86342   0.12455
H          H       0.08527   0.52314   0.88016   0.11528
H          H       0.43579   0.30187   0.91671   0.11530
H          H       0.40560   0.22735   0.83546   0.12371
H          H       0.46461   0.24007   0.91706   0.11671
H          H       0.04492   0.21239   0.66503   0.11232
H          H       0.08255   0.15614   0.65165   0.08744
H          H       0.13452   0.24815   0.68237   0.08595
H          H       0.42099   0.95022   0.60016   0.10682
H          H       0.44492   0.76225   0.46007   0.09083
H          H       0.45894   0.84837   0.50430   0.09080
H          H       0.61989   0.89685   0.73090   0.09758
H          H       0.28725   0.90324   0.68909   0.11257
H          H       0.53394   0.67506   0.59365   0.09375
H          H       0.51114   0.92685   0.61994   0.10209
H          H       0.56016   0.95345   0.70946   0.09820
H          H       0.68673   0.74514   0.77768   0.11686
H          H       0.59905   0.68774   0.70436   0.11362
H          H       0.61714   0.76190   0.77880   0.12327
H          H       0.42696   0.60812   0.49462   0.09998
H          H       0.40291   0.65043   0.44854   0.10775
H          H       0.28047   0.88781   0.49742   0.12751
H          H       0.22065   0.91962   0.49908   0.12661
H          H       0.21681   0.85371   0.52243   0.12819
H          H       0.23634   0.00179   0.61407   0.12480
H          H       0.29620   0.01529   0.69567   0.11785
H          H       0.22071   0.92997   0.63018   0.13031
H          H       0.76212   0.86440   0.79890   0.12690
H          H       0.69961   0.88880   0.80916   0.11707
H          H       0.72756   0.90033   0.74889   0.12119
H          H       0.73079   0.76169   0.69253   0.11658
H          H       0.69286   0.79146   0.63670   0.12388
H          H       0.64299   0.70499   0.62020   0.11481
H          H       0.38569   0.01916   0.58370   0.11542
H          H       0.39214   0.07014   0.66473   0.12372
H          H       0.32333   0.04739   0.58295   0.11630
H          H       0.54746   0.88027   0.83563   0.11290
H          H       0.50456   0.93132   0.84857   0.08793
H          H       0.56622   0.95254   0.81839   0.08609
H          H       0.07907   0.17945   0.02986   0.10744
H          H       0.05448   0.01504   0.81744   0.09080
H          H       0.04162   0.04589   0.89023   0.09068
H          H       0.88040   0.11104   0.77716   0.09720
H          H       0.21322   0.40230   0.11658   0.11283
H          H       0.96584   0.05947   0.64114   0.09403
H          H       0.98913   0.10870   0.91587   0.10252
H          H       0.94003   0.14905   0.89342   0.09785
H          H       0.81379   0.09125   0.55862   0.11611
H          H       0.90128   0.10540   0.58894   0.11353
H          H       0.88352   0.16192   0.64517   0.12337
H          H       0.07265   0.06742   0.68113   0.09962
H          H       0.09673   0.04551   0.74758   0.10793
H          H       0.21940   0.21716   0.10774   0.12715
H          H       0.27945   0.27871   0.19951   0.12752
H          H       0.28327   0.30589   0.13747   0.12752
H          H       0.26420   0.37831   0.26624   0.12561
H          H       0.20443   0.40007   0.21988   0.11812
H          H       0.27974   0.40999   0.21000   0.12994
H          H       0.73827   0.03721   0.60223   0.12668
H          H       0.80097   0.10991   0.68936   0.11670
H          H       0.77252   0.02153   0.67265   0.12145
H          H       0.76905   0.96190   0.53072   0.11646
H          H       0.80665   0.94366   0.59830   0.12469
H          H       0.85659   0.97687   0.56182   0.11532
H          H       0.11459   0.19828   0.13397   0.11527
H          H       0.10821   0.27288   0.17852   0.12371
H          H       0.17698   0.26004   0.22470   0.11650
H          H       0.95253   0.28743   0.83262   0.11201
H          H       0.99539   0.34364   0.92660   0.08772
H          H       0.93409   0.25160   0.88636   0.08586
H          H       0.67937   0.52976   0.07935   0.10725
H          H       0.51512   0.31742   0.05464   0.09071
H          H       0.54584   0.39011   0.04156   0.09052
H          H       0.61110   0.27712   0.88044   0.09750
H          H       0.90232   0.61670   0.21314   0.11288
H          H       0.55946   0.14110   0.96587   0.09381
H          H       0.60874   0.41580   0.98920   0.10195
H          H       0.64914   0.39340   0.94014   0.09794
H          H       0.59118   0.05852   0.81358   0.11668
H          H       0.60546   0.08884   0.90112   0.11382
H          H       0.66184   0.14509   0.88333   0.12365
H          H       0.56740   0.18109   0.07265   0.09953
H          H       0.54556   0.24762   0.09678   0.10753
H          H       0.71734   0.60786   0.21962   0.12693
H          H       0.77877   0.69966   0.27955   0.12669
H          H       0.80608   0.63772   0.28347   0.12783
H          H       0.87832   0.76633   0.26418   0.12537
H          H       0.89995   0.71986   0.20431   0.11855
H          H       0.91004   0.71009   0.27971   0.13028
H          H       0.53683   0.10205   0.73811   0.12699
H          H       0.60959   0.18919   0.80077   0.11684
H          H       0.52128   0.17255   0.77255   0.12107
H          H       0.46184   0.03059   0.76909   0.11676
H          H       0.44362   0.09816   0.80679   0.12421
H          H       0.47698   0.06170   0.85670   0.11497
H          H       0.69827   0.63395   0.11462   0.11513
H          H       0.77284   0.67851   0.10824   0.12389
H          H       0.75998   0.72472   0.17701   0.11638
H          H       0.78773   0.33276   0.95266   0.11221
H          H       0.84400   0.42679   0.99577   0.08744
H          H       0.75204   0.38658   0.93420   0.08556
H          H       0.45021   0.10004   0.42088   0.10741
H          H       0.26198   0.95972   0.44449   0.09088
H          H       0.34810   0.00396   0.45852   0.09127
H          H       0.39684   0.23069   0.61976   0.09763
H          H       0.40323   0.18902   0.28717   0.11282
H          H       0.17507   0.09359   0.53394   0.09371
H          H       0.42670   0.11965   0.51090   0.10237
H          H       0.45332   0.20915   0.56003   0.09807
H          H       0.24504   0.27755   0.68653   0.11630
H          H       0.18769   0.20413   0.59889   0.11392
H          H       0.26168   0.27858   0.61684   0.12364
H          H       0.10806   0.99457   0.42687   0.09962
H          H       0.15030   0.94841   0.40279   0.10799
H          H       0.38790   0.99733   0.28038   0.12771
H          H       0.41971  -0.00099   0.22055   0.12734
H          H       0.35378   0.02232   0.21672   0.12756
H          H       0.50185   0.11403   0.23631   0.12549
H          H       0.51529   0.19562   0.29618   0.11810
H          H       0.43002   0.13012   0.22066   0.13001
H          H       0.36438   0.29913   0.76192   0.12670
H          H       0.38868   0.30919   0.69929   0.11708
H          H       0.40043   0.24916   0.72755   0.12169
H          H       0.26192   0.19274   0.73085   0.11625
H          H       0.29183   0.13696   0.69308   0.12424
H          H       0.20527   0.12021   0.64311   0.11493
H          H       0.51918   0.08364   0.38565   0.11527
H          H       0.57013   0.16467   0.39211   0.12369
H          H       0.54742   0.08289   0.32330   0.11635
H          H       0.38024   0.33548   0.54751   0.11218
H          H       0.43122   0.34849   0.50460   0.08767
H          H       0.45249   0.31819   0.56615   0.08634
H          H       0.82077   0.40035   0.35043   0.10752
H          H       0.98524   0.54063   0.30305   0.09141
H          H       0.95428   0.49672   0.34494   0.09083
H          H       0.88902   0.26996   0.16637   0.09853
H          H       0.59780   0.31065   0.21405   0.11316
H          H       0.94075   0.40700   0.08203   0.09407
H          H       0.89135   0.38110   0.30740   0.10237
H          H       0.85103   0.29156   0.24445   0.09790
H          H       0.90842   0.22267   0.96747   0.11618
H          H       0.89447   0.29613   0.98369   0.11306
H          H       0.83793   0.22191   0.98341   0.12319
H          H       0.93271   0.50593   0.11398   0.09980
H          H       0.95460   0.55203   0.20239   0.10797
H          H       0.78258   0.50253   0.39045   0.12724
H          H       0.72116   0.50077   0.42071   0.12662
H          H       0.69371   0.47713   0.33133   0.12707
H          H       0.62185   0.38552   0.38773   0.12536
H          H       0.60034   0.30398   0.31965   0.11799
H          H       0.59003   0.36916   0.29969   0.12956
H          H       0.96247   0.20132   0.06532   0.12661
H          H       0.88992   0.19148   0.07979   0.11656
H          H       0.97840   0.25151   0.15152   0.12154
H          H       0.03787   0.30741   0.06905   0.11593
H          H       0.05632   0.36335   0.15500   0.12427
H          H       0.02310   0.38012   0.08526   0.11484
H          H       0.80194   0.41660   0.43576   0.11539
H          H       0.72739   0.33540   0.40552   0.12398
H          H       0.74025   0.41703   0.46470   0.11636
H          H       0.71200   0.16476   0.04478   0.11230
H          H       0.65574   0.15168   0.08242   0.08749
H          H       0.74761   0.18197   0.13434   0.08593
H          H       0.04943   0.97006   0.14947   0.10738
H          H       0.23723   0.18227   0.19726   0.09071
H          H       0.15153   0.10887   0.15492   0.09065
H          H       0.10334   0.22262   0.33354   0.09833
H          H       0.09647   0.88354   0.28563   0.11335
H          H       0.32499   0.35887   0.41842   0.09412
H          H       0.07327   0.08367   0.19254   0.10197
H          H       0.04676   0.10636   0.25545   0.09728
H          H       0.25500   0.44129   0.53248   0.11633
H          H       0.31238   0.41117   0.51668   0.11367
H          H       0.23818   0.35484   0.51658   0.12361
H          H       0.39199   0.31886   0.38664   0.09953
H          H       0.34961   0.25239   0.29812   0.10783
H          H       0.11196   0.89209   0.10961   0.12624
H          H       0.07982   0.80030   0.07905   0.12703
H          H       0.14568   0.86224   0.16852   0.12753
H          H       0.99760   0.73372   0.11181   0.12544
H          H       0.98411   0.78025   0.17981   0.11743
H          H       0.06934   0.79015   0.19995   0.12980
H          H       0.13600   0.39749   0.43442   0.12640
H          H       0.11145   0.31042   0.41989   0.11657
H          H       0.09995   0.32705   0.34823   0.12098
H          H       0.23851   0.46908   0.43104   0.11631
H          H       0.20863   0.40145   0.34519   0.12375
H          H       0.29514   0.43815   0.41522   0.11491
H          H       0.98066   0.86590   0.06401   0.11487
H          H       0.92956   0.82146   0.09389   0.12327
H          H       0.95213   0.77520   0.03489   0.11655
H          H       0.12017   0.16727   0.45533   0.11235
H          H       0.06892   0.07323   0.41710   0.08758
H          H       0.04774   0.11363   0.36565   0.08575
H          H       0.60032   0.92109   0.45045   0.10705
H          H       0.45995   0.94465   0.26211   0.09031
H          H       0.50416   0.95873   0.34820   0.09072
H          H       0.73080   0.11985   0.39690   0.09766
H          H       0.68894   0.78707   0.40306   0.11299
H          H       0.59364   0.03392   0.17511   0.09388
H          H       0.61987   0.01108   0.42685   0.10201
H          H       0.70934   0.06018   0.45345   0.09826
H          H       0.77760   0.18662   0.24515   0.11647
H          H       0.70430   0.09895   0.18778   0.11361
H          H       0.77871   0.11703   0.26188   0.12359
H          H       0.49470   0.92693   0.10815   0.09938
H          H       0.44853   0.90289   0.15039   0.10744
H          H       0.49748   0.78045   0.38791   0.12724
H          H       0.49916   0.72062   0.41969   0.12726
H          H       0.52248   0.71678   0.35378   0.12785
H          H       0.61413   0.73637   0.50188   0.12516
H          H       0.69570   0.79621   0.51533   0.11811
H          H       0.63024   0.72068   0.43005   0.13033
H          H       0.79891   0.26208   0.36441   0.12648
H          H       0.80911   0.19958   0.38882   0.11715
H          H       0.74893   0.22763   0.40039   0.12103
H          H       0.69258   0.23079   0.26178   0.11624
H          H       0.63676   0.19295   0.29158   0.12384
H          H       0.62021   0.14302   0.20512   0.11448
H          H       0.58374   0.88572   0.51921   0.11500
H          H       0.66477   0.89220   0.57017   0.12348
H          H       0.58302   0.82340   0.54747   0.11633
H          H       0.83544   0.04749   0.38021   0.11270
H          H       0.84848   0.00463   0.43125   0.08806
H          H       0.81810   0.06615   0.45245   0.08607
H          H       0.02969   0.57883   0.67932   0.10695
H          H       0.81770   0.55427   0.51496   0.09040
H          H       0.89038   0.54122   0.54593   0.09070
H          H       0.77705   0.38021   0.61117   0.09745
H          H       0.11655   0.71315   0.90219   0.11264
H          H       0.64127   0.46590   0.55963   0.09386
H          H       0.91581   0.48859   0.60874   0.10204
H          H       0.89330   0.43978   0.64930   0.09817
H          H       0.55845   0.31350   0.59113   0.11673
H          H       0.58881   0.40107   0.60553   0.11325
H          H       0.64496   0.38318   0.66189   0.12358
H          H       0.68126   0.57253   0.56734   0.09925
H          H       0.74784   0.59668   0.54557   0.10771
H          H       0.10766   0.71934   0.71711   0.12740
H          H       0.19940   0.77939   0.77866   0.12734
H          H       0.13736   0.78317   0.80585   0.12719
H          H       0.26614   0.76396   0.87813   0.12539
H          H       0.21970   0.70417   0.89983   0.11824
H          H       0.20995   0.77958   0.90988   0.12968
H          H       0.60193   0.23798   0.53679   0.12649
H          H       0.68903   0.30055   0.60960   0.11688
H          H       0.67246   0.27238   0.52130   0.12142
H          H       0.53062   0.26911   0.46187   0.11669
H          H       0.59820   0.30681   0.44369   0.12438
H          H       0.56180   0.35676   0.47713   0.11491
H          H       0.13377   0.61441   0.69808   0.11539
H          H       0.17833   0.60802   0.77264   0.12409
H          H       0.22451   0.67679   0.75979   0.11666
H          H       0.83270   0.45258   0.78769   0.11212
H          H       0.92667   0.49557   0.84393   0.08770
H          H       0.88647   0.43406   0.75194   0.08611
H          H       0.47007   0.64946   0.04929   0.10760
H          H       0.68215   0.69711   0.23693   0.09129
H          H       0.60865   0.65466   0.15133   0.09039
H          H       0.72259   0.83345   0.10316   0.09798
H          H       0.38368   0.78573   0.09659   0.11309
H          H       0.85875   0.91820   0.32487   0.09408
H          H       0.58360   0.69246   0.07304   0.10216
H          H       0.60628   0.75535   0.04654   0.09770
H          H       0.94117   0.03246   0.25504   0.11635
H          H       0.91100   0.01656   0.31236   0.11344
H          H       0.85468   0.01647   0.23815   0.12333
H          H       0.81873   0.88636   0.39176   0.09943
H          H       0.75215   0.79787   0.34933   0.10803
H          H       0.39225   0.60965   0.11198   0.12752
H          H       0.30052   0.57921   0.07998   0.12697
H          H       0.36254   0.66866   0.14583   0.12733
H          H       0.23389   0.61199   0.99782   0.12541
H          H       0.28037   0.67997   0.98431   0.11779
H          H       0.29038   0.70013   0.06959   0.12951
H          H       0.89743   0.93437   0.13594   0.12676
H          H       0.81035   0.91983   0.11139   0.11614
H          H       0.82702   0.84817   0.09986   0.12160
H          H       0.96901   0.93098   0.23846   0.11642
H          H       0.90146   0.84513   0.20858   0.12447
H          H       0.93813   0.91517   0.29509   0.11494
H          H       0.36585   0.56397   0.98058   0.11540
H          H       0.32138   0.59390   0.92954   0.12333
H          H       0.27520   0.53496   0.95220   0.11646
H          H       0.66733   0.95531   0.12021   0.11245
H          H       0.57330   0.91707   0.06888   0.08701
H          H       0.61375   0.86562   0.04778   0.08632
H          H       0.90021   0.85042   0.82074   0.10735
H          H       0.04058   0.80305   0.98518   0.09107
H          H       0.99675   0.84496   0.95424   0.09020
H          H       0.77005   0.66648   0.88914   0.09818
H          H       0.81078   0.71390   0.59779   0.11284
H          H       0.90714   0.58216   0.94085   0.09389
H          H       0.88109   0.80744   0.89136   0.10227
H          H       0.79157   0.74454   0.85109   0.09729
H          H       0.72276   0.46760   0.90845   0.11598
H          H       0.79615   0.48376   0.89441   0.11322
H          H       0.72197   0.48365   0.83801   0.12302
H          H       0.00594   0.61405   0.93272   0.09997
H          H       0.05199   0.70244   0.95456   0.10762
H          H       0.00249   0.89036   0.78254   0.12744
H          H       0.00068   0.92049   0.72103   0.12684
H          H       0.97707   0.83113   0.69367   0.12756
H          H       0.88550   0.88757   0.62176   0.12575
H          H       0.80397   0.81952   0.60025   0.11792
H          H       0.86911   0.79951   0.58996   0.13016
H          H       0.70165   0.56565   0.96283   0.12686
H          H       0.69175   0.58013   0.89030   0.11643
H          H       0.75190   0.65184   0.97879   0.12128
H          H       0.80762   0.56911   0.03800   0.11636
H          H       0.86365   0.65505   0.05652   0.12458
H          H       0.88023   0.58519   0.02314   0.11562
H          H       0.91665   0.93577   0.80191   0.11558
H          H       0.83544   0.90552   0.72737   0.12366
H          H       0.91702   0.96460   0.74013   0.11611
H          H       0.66483   0.54483   0.71207   0.11249
H          H       0.65173   0.58253   0.65587   0.08728
H          H       0.68214   0.63444   0.74779   0.08542
C          C       0.33733   0.61960   0.49076   0.01912
C          C       0.29818   0.72043   0.68388   0.12703
C          C       0.20169   0.56822   0.47485  -0.22593
C          C       0.32766   0.61702   0.54695   0.11951
C          C       0.29587   0.65617   0.67266   0.03481
C          C       0.18715   0.70852   0.62815  -0.11973
C          C       0.14436   0.53958   0.34534   0.25573
C          C       0.33690   0.65368   0.73134  -0.19990
C          C       0.34402   0.78231   0.75058   0.02903
C          C       0.20879   0.56700   0.41643   0.04385
C          C       0.25997   0.59266   0.54013   0.01491
C          C       0.27741   0.59413   0.42650  -0.20774
C          C       0.14246   0.72791   0.58169   0.59836
C          C       0.37975   0.71294   0.79950   0.05754
C          C       0.38381   0.77713   0.80722  -0.19586
C          C       0.24862   0.58957   0.60031  -0.20809
C          C       0.50165   0.75679   0.89479  -0.42854
C          C       0.34938   0.85275   0.76233  -0.21134
C          C       0.12455   0.59805   0.35116  -0.44593
C          C       0.16058   0.52179   0.28421  -0.42909
C          C       0.40486   0.63489   0.84855  -0.42746
C          C       0.40222   0.74006   0.92179  -0.43253
C          C       0.08082   0.47170   0.32622  -0.43168
C          C       0.42146   0.71060   0.86501   0.25280
C          C       0.40658   0.59142   0.61596  -0.17748
C          C       0.16251   0.15339   0.78237   0.01969
C          C       0.20191   0.38570   0.92254   0.12712
C          C       0.29827   0.27320   0.86668  -0.22498
C          C       0.17228   0.21928   0.78951   0.12008
C          C       0.20419   0.37682   0.86059   0.03539
C          C       0.31316   0.44128   0.02159  -0.11807
C          C       0.35540   0.20087   0.89519   0.25528
C          C       0.16317   0.39445   0.81708  -0.20004
C          C       0.15617   0.40655   0.93857   0.03032
C          C       0.29105   0.20760   0.85823   0.04510
C          C       0.24005   0.28023   0.83288   0.01468
C          C       0.22235   0.14898   0.81675  -0.20758
C          C       0.35841   0.43979   0.08564   0.59730
C          C       0.12044   0.41978   0.83347   0.05833
C          C       0.11648   0.42347   0.89364  -0.19728
C          C       0.25142   0.35184   0.84127  -0.20955
C          C       0.99850   0.39292   0.75545  -0.42770
C          C       0.15106   0.41318   0.00379  -0.21163
C          C       0.37535   0.22657   0.97355  -0.44534
C          C       0.33899   0.12342   0.86106  -0.43045
C          C       0.09495   0.44321   0.72999  -0.42836
C          C       0.09807   0.51956   0.83796  -0.43372
C          C       0.41890   0.24529   0.89087  -0.43131
C          C       0.07864   0.44339   0.78928   0.25320
C          C       0.09349   0.20959   0.68503  -0.17731
C          C       0.37129   0.88032   0.71772   0.01918
C          C       0.46371   0.77968   0.57797   0.12709
C          C       0.40684   0.93150   0.63345  -0.22507
C          C       0.43012   0.88298   0.71076   0.11970
C          C       0.51685   0.84394   0.64007   0.03494
C          C       0.42039   0.79176   0.47898  -0.11968
C          C       0.30588   0.95996   0.60461   0.25547
C          C       0.57801   0.84642   0.68365  -0.19912
C          C       0.46838   0.71779   0.56185   0.02918
C          C       0.34958   0.93267   0.64167   0.04413
C          C       0.44775   0.90727   0.66746   0.01475
C          C       0.33247   0.90560   0.68315  -0.20618
C          C       0.35491   0.77328   0.41503   0.59913
C          C       0.58678   0.78717   0.66719   0.05832
C          C       0.53016   0.72296   0.60694  -0.19644
C          C       0.51120   0.91052   0.65950  -0.20952
C          C       0.63834   0.74333   0.74508  -0.42847
C          C       0.40961   0.64732   0.49660  -0.21153
C          C       0.25330   0.90153   0.52615  -0.44680
C          C       0.26238   0.97756   0.63846  -0.42931
C          C       0.71409   0.86533   0.77046  -0.42847
C          C       0.68183   0.76011   0.66229  -0.43215
C          C       0.35475   0.02797   0.60927  -0.43141
C          C       0.65471   0.78958   0.71123   0.25204
C          C       0.52479   0.90882   0.81548  -0.17935
C          C       0.12904   0.34665   0.00945   0.02089
C          C       0.03638   0.11436   0.81614   0.12645
C          C       0.09326   0.22685   0.02519  -0.22418
C          C       0.07018   0.28074   0.95318   0.11944
C          C       0.98328   0.12319   0.82726   0.03488
C          C       0.07963   0.05874   0.87159  -0.11910
C          C       0.19440   0.29914   0.15471   0.25621
C          C       0.92214   0.10561   0.76855  -0.19798
C          C       0.03158   0.09352   0.74954   0.03070
C          C       0.15064   0.29245   0.08367   0.04427
C          C       0.05242   0.21981   0.95990   0.01534
C          C       0.16788   0.35103   0.07367  -0.20719
C          C       0.14509   0.05999   0.91818   0.59788
C          C       0.91326   0.08036   0.70048   0.05865
C          C       0.96973   0.07661   0.69286  -0.19708
C          C       0.98900   0.14822   0.89953  -0.20990
C          C       0.86210   0.10693   0.60524  -0.42805
C          C       0.09014   0.08689   0.73775  -0.21089
C          C       0.24675   0.27314   0.14875  -0.44668
C          C       0.23810   0.37661   0.21593  -0.42984
C          C       0.78621   0.05664   0.65124  -0.42836
C          C       0.81793   0.98039   0.57814  -0.43374
C          C       0.14557   0.25487   0.17378  -0.43162
C          C       0.84543   0.05658   0.63492   0.25178
C          C       0.97535   0.29023   0.88399  -0.17729
C          C       0.84669   0.50951   0.12905   0.01945
C          C       0.61441   0.31612   0.03642   0.12702
C          C       0.72680   0.52511   0.09343  -0.22674
C          C       0.78076   0.45318   0.07020   0.11903
C          C       0.62330   0.32723   0.98337   0.03516
C          C       0.55877   0.37157   0.07966  -0.11929
C          C       0.79915   0.65476   0.19446   0.25603
C          C       0.60566   0.26851   0.92217  -0.19878
C          C       0.59352   0.24949   0.03160   0.02971
C          C       0.79243   0.58367   0.15073   0.04419
C          C       0.71983   0.45988   0.05254   0.01588
C          C       0.85104   0.57373   0.16786  -0.20694
C          C       0.56016   0.41841   0.14512   0.59856
C          C       0.58035   0.20041   0.91327   0.05791
C          C       0.57664   0.19282   0.96975  -0.19596
C          C       0.64829   0.39949   0.98909  -0.20976
C          C       0.60688   0.10513   0.86193  -0.42913
C          C       0.58690   0.23773   0.09017  -0.21091
C          C       0.77326   0.64891   0.24691  -0.44618
C          C       0.87660   0.71598   0.23808  -0.43053
C          C       0.55637   0.15109   0.78611  -0.42854
C          C       0.48038   0.07801   0.81800  -0.43418
C          C       0.75483   0.67380   0.14561  -0.43185
C          C       0.55649   0.13481   0.84539   0.25304
C          C       0.79054   0.38415   0.97551  -0.17678
C          C       0.38030   0.21761   0.37122   0.01897
C          C       0.27955   0.07775   0.46352   0.12677
C          C       0.43146   0.13333   0.40674  -0.22476
C          C       0.38294   0.21064   0.43005   0.11947
C          C       0.34383   0.13984   0.51669   0.03540
C          C       0.29149   0.97867   0.41998  -0.12004
C          C       0.45999   0.10454   0.30582   0.25596
C          C       0.34639   0.18346   0.57789  -0.19904
C          C       0.21772   0.06171   0.46827   0.02924
C          C       0.43268   0.14159   0.34951   0.04351
C          C       0.40722   0.16731   0.44764   0.01529
C          C       0.40559   0.18305   0.33240  -0.20596
C          C       0.27296   0.91477   0.35438   0.59798
C          C       0.28717   0.16709   0.58670   0.05859
C          C       0.22294   0.10682   0.53010  -0.19704
C          C       0.41039   0.15923   0.51103  -0.20978
C          C       0.24324   0.24493   0.63815  -0.42919
C          C       0.14723   0.99650   0.40951  -0.21137
C          C       0.40161   0.02608   0.25323  -0.44732
C          C       0.47759   0.13841   0.26234  -0.42982
C          C       0.36533   0.27060   0.71393  -0.42885
C          C       0.26035   0.16242   0.68191  -0.43255
C          C       0.52798   0.10920   0.35471  -0.43085
C          C       0.28963   0.21123   0.65462   0.25198
C          C       0.40876   0.31534   0.52478  -0.17862
C          C       0.65340   0.28234   0.16254   0.01874
C          C       0.88594   0.42272   0.20206   0.12696
C          C       0.77329   0.36690   0.29828  -0.22620
C          C       0.71931   0.28954   0.17230   0.11973
C          C       0.87689   0.36069   0.20423   0.03536
C          C       0.94153   0.52184   0.31335  -0.11857
C          C       0.70098   0.39528   0.35549   0.25513
C          C       0.89449   0.31713   0.16318  -0.20029
C          C       0.90676   0.43876   0.15632   0.02971
C          C       0.70768   0.35834   0.29110   0.04487
C          C       0.78028   0.33302   0.24004   0.01531
C          C       0.64905   0.31675   0.22242  -0.20756
C          C       0.93987   0.58574   0.35865   0.59854
C          C       0.91977   0.33349   0.12042   0.05832
C          C       0.92358   0.39373   0.11654  -0.19746
C          C       0.85186   0.34138   0.25142  -0.20945
C          C       0.89291   0.25543   0.99848  -0.42773
C          C       0.91326   0.50390   0.15110  -0.21178
C          C       0.72669   0.47365   0.37550  -0.44522
C          C       0.62357   0.36114   0.33912  -0.42937
C          C       0.94319   0.22997   0.09493  -0.42790
C          C       0.01953   0.33790   0.09804  -0.43268
C          C       0.74538   0.39084   0.41892  -0.43144
C          C       0.94337   0.28927   0.07862   0.25271
C          C       0.70923   0.18485   0.09337  -0.17706
C          C       0.11955   0.99068   0.33723   0.01946
C          C       0.22042   0.18380   0.29804   0.12752
C          C       0.06824   0.97476   0.20159  -0.22661
C          C       0.11702   0.04689   0.32759   0.11881
C          C       0.15620   0.17258   0.29574   0.03459
C          C       0.20834   0.12814   0.18686  -0.11828
C          C       0.03957   0.84524   0.14424   0.25542
C          C       0.15373   0.23127   0.33681  -0.19992
C          C       0.28232   0.25048   0.34394   0.03020
C          C       0.06697   0.91633   0.20867   0.04373
C          C       0.09268   0.04007   0.25988   0.01526
C          C       0.09413   0.92642   0.27732  -0.20694
C          C       0.22754   0.08159   0.14196   0.59832
C          C       0.21297   0.29942   0.37972   0.05817
C          C       0.27712   0.30711   0.38373  -0.19707
C          C       0.08960   0.10024   0.24850  -0.20821
C          C       0.25680   0.39475   0.50161  -0.42870
C          C       0.35274   0.26224   0.34932  -0.21127
C          C       0.09798   0.85105   0.12438  -0.44496
C          C       0.02183   0.78412   0.16043  -0.42867
C          C       0.13496   0.34851   0.40485  -0.42758
C          C       0.24005   0.42172   0.40217  -0.43234
C          C       0.97170   0.82613   0.08072  -0.43112
C          C       0.21063   0.36495   0.42143   0.25267
C          C       0.09146   0.11596   0.40652  -0.17723
C          C       0.71758   0.87113   0.38019   0.01931
C          C       0.57794   0.96364   0.27966   0.12703
C          C       0.63354   0.90688   0.43162  -0.22506
C          C       0.71069   0.93002   0.38291   0.11984
C          C       0.64000   0.01682   0.34395   0.03466
C          C       0.47889   0.92014   0.29162  -0.11966
C          C       0.60466   0.80588   0.46002   0.25568
C          C       0.68358   0.07798   0.34646  -0.19907
C          C       0.56183   0.96834   0.21780   0.02940
C          C       0.64169   0.84956   0.43272   0.04414
C          C       0.66746   0.94773   0.40731   0.01422
C          C       0.68303   0.83234   0.40549  -0.20686
C          C       0.41500   0.85462   0.27315   0.59850
C          C       0.66718   0.08676   0.28722   0.05853
C          C       0.60691   0.03015   0.22300  -0.19712
C          C       0.65943   0.01116   0.41052  -0.20945
C          C       0.74501   0.13825   0.24336  -0.42861
C          C       0.49661   0.90957   0.14732  -0.21096
C          C       0.52622   0.75329   0.40161  -0.44689
C          C       0.63851   0.76239   0.47762  -0.42927
C          C       0.77045   0.21407   0.36535  -0.42769
C          C       0.66233   0.18185   0.26022  -0.43180
C          C       0.60931   0.85479   0.52802  -0.43083
C          C       0.71121   0.15468   0.28964   0.25186
C          C       0.81530   0.02478   0.40874  -0.17920
C          C       0.00944   0.62899   0.84664   0.01957
C          C       0.81618   0.53615   0.61430   0.12624
C          C       0.02506   0.59306   0.72676  -0.22444
C          C       0.95316   0.57007   0.78076   0.11935
C          C       0.82724   0.48306   0.62323   0.03520
C          C       0.87179   0.57930   0.55872  -0.11755
C          C       0.15458   0.69425   0.79899   0.25650
C          C       0.76849   0.42195   0.60567  -0.19850
C          C       0.74963   0.53145   0.59350   0.03036
C          C       0.08354   0.65050   0.79232   0.04329
C          C       0.95983   0.55222   0.71980   0.01534
C          C       0.07362   0.66780   0.85095  -0.20685
C          C       0.91873   0.64471   0.56020   0.59694
C          C       0.70044   0.41316   0.58043   0.05856
C          C       0.69293   0.46968   0.57673  -0.19828
C          C       0.89946   0.48869   0.64829  -0.20972
C          C       0.60510   0.36186   0.60692  -0.42896
C          C       0.73790   0.59005   0.58688  -0.21142
C          C       0.14865   0.74666   0.77307  -0.44696
C          C       0.21582   0.73791   0.87644  -0.42954
C          C       0.65100   0.28596   0.55639  -0.42812
C          C       0.57805   0.31801   0.48045  -0.43393
C          C       0.17362   0.64539   0.75465  -0.43242
C          C       0.63481   0.34533   0.55657   0.25292
C          C       0.88406   0.47538   0.79049  -0.17794
C          C       0.49077   0.83726   0.11961   0.01934
C          C       0.68372   0.79791   0.22021   0.12751
C          C       0.47479   0.70159   0.06814  -0.22570
C          C       0.54693   0.82758   0.11700   0.11971
C          C       0.67252   0.79565   0.15600   0.03410
C          C       0.62803   0.68675   0.20816  -0.11792
C          C       0.34534   0.64431   0.03964   0.25565
C          C       0.73123   0.83671   0.15356  -0.19901
C          C       0.75036   0.84378   0.28212   0.03006
C          C       0.41640   0.70871   0.06697   0.04445
C          C       0.54006   0.75984   0.09255   0.01549
C          C       0.42652   0.77738   0.09417  -0.20746
C          C       0.58157   0.64203   0.22752   0.59745
C          C       0.79936   0.87957   0.21283   0.05780
C          C       0.80701   0.88358   0.27697  -0.19747
C          C       0.60019   0.74843   0.08940  -0.20853
C          C       0.89462   0.00153   0.25679  -0.42863
C          C       0.76210   0.84911   0.35253  -0.21075
C          C       0.35126   0.62448   0.09808  -0.44619
C          C       0.28427   0.66059   0.02202  -0.42919
C          C       0.84846   0.90479   0.13489  -0.42833
C          C       0.92167   0.90211   0.24000  -0.43260
C          C       0.32612   0.58075   0.97171  -0.43130
C          C       0.86489   0.92135   0.21056   0.25317
C          C       0.61603   0.90650   0.09147  -0.17699
C          C       0.78243   0.66244   0.65340   0.01957
C          C       0.92267   0.70207   0.88588   0.12736
C          C       0.86681   0.79825   0.77326  -0.22562
C          C       0.78958   0.67224   0.71931   0.11981
C          C       0.86070   0.70428   0.87692   0.03517
C          C       0.02177   0.81329   0.94142  -0.11734
C          C       0.89525   0.85537   0.70093   0.25532
C          C       0.81720   0.66326   0.89455  -0.20031
C          C       0.93876   0.65636   0.90675   0.02916
C          C       0.85832   0.79101   0.70765   0.04428
C          C       0.83300   0.74003   0.78028   0.01489
C          C       0.81682   0.72229   0.64903  -0.20734
C          C       0.08569   0.85847   0.93974   0.59730
C          C       0.83362   0.62056   0.91991   0.05739
C          C       0.89381   0.61664   0.92364  -0.19565
C          C       0.84135   0.75146   0.85188  -0.20910
C          C       0.75551   0.49862   0.89296  -0.42720
C          C       0.00388   0.65114   0.91324  -0.21097
C          C       0.97359   0.87534   0.72662  -0.44542
C          C       0.86112   0.83898   0.62350  -0.43050
C          C       0.73027   0.59522   0.94354  -0.42836
C          C       0.83811   0.59808   0.01966  -0.43385
C          C       0.89085   0.91886   0.74532  -0.43141
C          C       0.78946   0.57878   0.94355   0.25295
C          C       0.68494   0.59343   0.70934  -0.17682
O          O       0.25290   0.72345   0.62831  -0.25539
O          O       0.16061   0.75279   0.54656  -0.59039
O          O       0.38588   0.64231   0.61141  -0.17052
O          O       0.08405   0.71319   0.58360  -0.59204
O          O       0.24727   0.37556   0.97095  -0.25637
O          O       0.34064   0.38656   0.09257  -0.59163
O          O       0.11411   0.22551   0.75659  -0.17043
O          O       0.41690   0.50019   0.12909  -0.59063
O          O       0.40519   0.77671   0.52954  -0.25588
O          O       0.29464   0.74836   0.40785  -0.59187
O          O       0.46928   0.85781   0.74379  -0.16898
O          O       0.37189   0.78848   0.37174  -0.59153
O          O       0.09493   0.12455   0.87175  -0.25574
O          O       0.20557   0.11277   0.95298  -0.59137
O          O       0.03105   0.27448   0.88874  -0.17035
O          O       0.12777  -0.00016   0.91676  -0.59055
O          O       0.62456   0.37172   0.09497  -0.25531
O          O       0.61308   0.45350   0.20556  -0.59132
O          O       0.77449   0.38872   0.03101  -0.17013
O          O       0.49995   0.41685   0.12788  -0.59134
O          O       0.27652   0.02934   0.40492  -0.25561
O          O       0.24816   0.90786   0.29424  -0.59110
O          O       0.35776   0.24366   0.46920  -0.16941
O          O       0.28803   0.87133   0.37121  -0.59107
O          O       0.87583   0.47115   0.24747  -0.25654
O          O       0.88656   0.59250   0.34091  -0.59252
O          O       0.72552   0.25652   0.11413  -0.17050
O          O       0.00034   0.62942   0.41709  -0.59050
O          O       0.22338   0.12825   0.25260  -0.25616
O          O       0.25253   0.04648   0.16004  -0.59033
O          O       0.14234   0.11139   0.38582  -0.17042
O          O       0.21259   0.08338   0.08347  -0.59208
O          O       0.52956   0.90506   0.27666  -0.25490
O          O       0.40800   0.79440   0.24824  -0.59144
O          O       0.74367   0.96916   0.35771  -0.16945
O          O       0.37156   0.87143   0.28821  -0.59118
O          O       0.87175   0.59469   0.62443  -0.25616
O          O       0.95386   0.70517   0.61316  -0.59181
O          O       0.88873   0.53095   0.77455  -0.17030
O          O       0.91711   0.62749   0.49997  -0.59013
O          O       0.62818   0.75251   0.22318  -0.25700
O          O       0.54635   0.66012   0.25233  -0.59071
O          O       0.61139   0.88584   0.14235  -0.17064
O          O       0.58350   0.58362   0.21284  -0.59101
O          O       0.97100   0.74745   0.87570  -0.25678
O          O       0.09242   0.84075   0.88642  -0.59081
O          O       0.75656   0.61409   0.72553  -0.17018
O          O       0.12937   0.91693   0.00024  -0.59094

