data_crystal

_audit_creation_method 'AiiDA-DDEC plugin'

_cell_length_a        17.39705
_cell_length_b        29.96992
_cell_length_c        29.95970

_cell_angle_alpha     85.14129
_cell_angle_beta     73.18681
_cell_angle_gamma     73.15815

_symmetry_space_group_name_Hall 'P 1'
_symmetry_space_group_name_H-M  'P 1'

loop_
_symmetry_equiv_pos_as_xyz
 'x,y,z'

loop_
_atom_site_label
_atom_site_type_symbol
_atom_site_fract_x
_atom_site_fract_y
_atom_site_fract_z
_atom_site_charge
Mn         Mn      0.55904   0.08334   0.35692   0.98284
Mn         Mn      0.28223   0.11331   0.46110   1.00659
Mn         Mn      0.78940   0.99888   0.41890   0.97444
Mn         Mn     -0.00113   0.41688   0.14333   0.98119
Mn         Mn      0.85542   0.38678   0.03917   1.00753
Mn         Mn      0.20794   0.50087   0.08088   0.97647
Mn         Mn      0.14092   0.35750   0.41714   0.98157
Mn         Mn      0.89575   0.46224   0.38558   1.00907
Mn         Mn      0.28838   0.41895   0.50116   0.97721
Mn         Mn      0.91604   0.14334   0.08321   0.98430
Mn         Mn      0.74266   0.03918   0.11326   1.00777
Mn         Mn      0.20856   0.08095   0.99876   0.97391
Mn         Mn      0.44095   0.91666   0.64308   0.98277
Mn         Mn      0.71776   0.88669   0.53889   1.00659
Mn         Mn      0.21059   0.00112   0.58110   0.97444
Mn         Mn      0.00113   0.58312   0.85667   0.98113
Mn         Mn      0.14458   0.61322   0.96083   1.00730
Mn         Mn      0.79206   0.49914   0.91912   0.97638
Mn         Mn      0.85908   0.64251   0.58285   0.98148
Mn         Mn      0.10425   0.53776   0.61442   1.00921
Mn         Mn      0.71161   0.58106   0.49884   0.97711
Mn         Mn      0.08396   0.85666   0.91679   0.98415
Mn         Mn      0.25734   0.96083   0.88674   1.00772
Mn         Mn      0.79144   0.91906   0.00124   0.97384
H          H       0.32151   0.24619   0.40627   0.10477
H          H       0.36832   0.31053   0.36133   0.11524
H          H       0.51314   0.29403   0.30615   0.09320
H          H       0.60860   0.21307   0.29944   0.12550
H          H       0.45155   0.96982   0.43743   0.11145
H          H       0.34942   0.00741   0.44601   0.11428
H          H       0.46667   0.96555   0.35171   0.09364
H          H       0.36183  -0.00110   0.36066   0.08328
H          H       0.41724   0.90376   0.40660   0.08132
H          H       0.38428   0.91191   0.35567   0.08138
H          H       0.27636   0.95201   0.45178   0.08270
H          H       0.24423   0.96387   0.40067   0.07657
H          H       0.28906   0.86705   0.44643   0.10569
H          H       0.18823   0.90034   0.44266   0.11374
H          H       0.26694   0.87582   0.39179   0.11553
H          H       0.61241   0.08910   0.24478   0.09362
H          H       0.55469   0.09220   0.17757   0.12687
H          H       0.32014   0.08790   0.27666   0.11271
H          H       0.38643   0.08625   0.33945   0.08809
H          H       0.43258   0.05779   0.16016   0.11577
H          H       0.41212   0.11803   0.15645   0.10682
H          H       0.06532   0.01091   0.48734   0.11124
H          H       0.02052   0.00959   0.41536   0.11945
H          H       0.08288   0.05071   0.34402   0.09765
H          H       0.18191   0.09561   0.34657   0.11851
H          H       0.32629   0.05030   0.60780   0.11679
H          H       0.40854   0.07154   0.57222   0.11283
H          H       0.34733   0.11647   0.64462   0.09006
H          H       0.32721   0.15342   0.59796   0.08010
H          H       0.20154   0.10751   0.66518   0.08371
H          H       0.18181   0.14291   0.61794   0.08661
H          H       0.22448   0.17424   0.70070   0.07588
H          H       0.20725   0.20954   0.65289   0.07843
H          H       0.07671   0.16657   0.72107   0.11059
H          H       0.07678   0.22584   0.72019   0.10692
H          H       0.05926   0.20235   0.67285   0.11429
H          H       0.76041   0.01394   0.24381   0.11058
H          H       0.89025   0.96926   0.18869   0.11046
H          H       0.00966   0.92235   0.21965   0.09612
H          H       0.99648   0.92330   0.30461   0.12816
H          H       0.54089   0.07877   0.51173   0.10580
H          H       0.51192   0.10867   0.46294   0.11618
H          H       0.53713   0.15921   0.51849   0.08265
H          H       0.64295   0.12634   0.50425   0.07887
H          H       0.55268   0.18325   0.43473   0.08691
H          H       0.65741   0.15016   0.41960   0.08505
H          H       0.58171   0.23453   0.48557   0.07788
H          H       0.68562   0.19978   0.47490   0.06428
H          H       0.71015   0.21945   0.38828   0.11061
H          H       0.68047   0.27012   0.42284   0.10234
H          H       0.60666   0.25598   0.40012   0.11628
H          H       0.29663   0.01694   0.06589   0.09163
H          H       0.32009   0.01769   0.14420   0.11885
H          H       0.24022   0.16799   0.13861   0.11626
H          H       0.21705   0.16094   0.06147   0.09087
H          H       0.26738   0.12737   0.21160   0.10490
H          H       0.28830   0.06589   0.21570   0.10463
H          H       0.97488   0.25399   0.09279   0.10486
H          H       0.04101   0.18949   0.13763   0.11299
H          H       0.11157   0.20607   0.19422   0.09253
H          H       0.11849   0.28713   0.20169   0.12548
H          H       0.85924   0.53045   0.06244   0.11179
H          H       0.80361   0.49267   0.05374   0.11442
H          H       0.78438   0.53428   0.14832   0.09361
H          H       0.72220   0.50090   0.13890   0.08185
H          H       0.72757   0.59642   0.09369   0.08176
H          H       0.65229   0.58773   0.14453   0.08145
H          H       0.68046   0.54795   0.04824   0.08250
H          H       0.60927   0.53594   0.09934   0.07743
H          H       0.60243   0.63287   0.05366   0.10564
H          H       0.53153   0.59930   0.05734   0.11382
H          H       0.53464   0.62390   0.10827   0.11588
H          H       0.94466   0.41231   0.25498   0.09406
H          H       0.82334   0.40833   0.32193   0.12801
H          H       0.68368   0.41288   0.22256   0.11249
H          H       0.81067   0.41548   0.15999   0.08735
H          H       0.65039   0.44148   0.33975   0.11500
H          H       0.68682   0.38119   0.34237   0.10679
H          H       0.56243   0.48979   0.01286   0.11149
H          H       0.44493   0.49122   0.08499   0.11973
H          H       0.47723   0.44958   0.15611   0.09788
H          H       0.62382   0.40455   0.15325   0.11805
H          H       0.98344   0.44985   0.89262   0.11662
H          H       0.05059   0.42883   0.92871   0.11250
H          H       0.10771   0.38387   0.85616   0.08981
H          H       0.07780   0.34691   0.90274   0.07920
H          H       0.97389   0.39259   0.83520   0.08395
H          H       0.94238   0.35709   0.88232   0.08615
H          H       0.09920   0.32597   0.79980   0.07560
H          H       0.06936   0.29061   0.84749   0.07733
H          H       0.96411   0.33369   0.77927   0.11160
H          H       0.02256   0.27439   0.77997   0.10693
H          H       0.93439   0.29773   0.82734   0.11377
H          H       0.01881   0.48635   0.25601   0.11086
H          H       0.04846   0.53166   0.31082   0.10959
H          H       0.15240   0.57821   0.27982   0.09771
H          H       0.22493   0.57699   0.19490   0.12975
H          H       0.13163   0.42063   0.98823   0.10486
H          H       0.08366   0.39107   0.03720   0.11534
H          H       0.21484   0.34019   0.98175   0.08202
H          H       0.27354   0.37326   0.99592   0.07866
H          H       0.17059   0.31655   0.06565   0.08587
H          H       0.22749   0.34961   0.08062   0.08407
H          H       0.30155   0.26517   0.01482   0.07745
H          H       0.36023   0.29983   0.02553   0.06455
H          H       0.31791   0.28026   0.11211   0.11102
H          H       0.37305   0.22949   0.07763   0.10214
H          H       0.26245   0.24382   0.10031   0.11613
H          H       0.38051   0.48278   0.43435   0.09106
H          H       0.48211   0.48216   0.35589   0.11855
H          H       0.54676   0.33186   0.36131   0.11529
H          H       0.44009   0.33876   0.43852   0.09190
H          H       0.60499   0.37260   0.28793   0.10420
H          H       0.56877   0.43412   0.28411   0.10412
H          H       0.06732   0.40654   0.25399   0.10374
H          H       0.17881   0.36162   0.18981   0.11532
H          H       0.30664   0.30637   0.20683   0.09202
H          H       0.32064   0.29960   0.28790   0.12502
H          H       0.91925   0.43837   0.52980   0.11150
H          H       0.85540   0.44600   0.49191   0.11478
H          H       0.93168   0.35222   0.53436   0.09355
H          H       0.85989   0.36082   0.50116   0.08221
H          H       0.82067   0.40682   0.59623   0.08113
H          H       0.79604   0.35585   0.58813   0.08170
H          H       0.72755   0.45196   0.54804   0.08223
H          H       0.70754   0.40079   0.53621   0.07803
H          H       0.65585   0.44634   0.63307   0.10560
H          H       0.58814   0.44258   0.59981   0.11330
H          H       0.64265   0.39170   0.62429   0.11559
H          H       0.20066   0.24545   0.41137   0.09473
H          H       0.14666   0.17807   0.40798   0.12682
H          H       0.90737   0.27680   0.41227   0.11278
H          H       0.97150   0.33975   0.41416   0.08723
H          H       0.99089   0.16025   0.44212   0.11549
H          H       0.03038   0.15674   0.38188   0.10682
H          H       0.57749   0.48673   0.48947   0.11103
H          H       0.53282   0.41437   0.49053   0.11897
H          H       0.63626   0.34391   0.44805   0.09717
H          H       0.77877   0.34766   0.40209   0.11877
H          H       0.87504   0.60856   0.44992   0.11666
H          H       0.97888   0.57330   0.42955   0.11377
H          H       0.96291   0.64567   0.38435   0.09103
H          H       0.98093   0.59897   0.34728   0.08029
H          H       0.80892   0.66593   0.39241   0.08300
H          H       0.82482   0.61843   0.35738   0.08603
H          H       0.89862   0.70116   0.32543   0.07626
H          H       0.91683   0.65309   0.29051   0.07849
H          H       0.74323   0.72121   0.33297   0.11115
H          H       0.80250   0.72005   0.27366   0.10708
H          H       0.76179   0.67274   0.29758   0.11356
H          H       0.27370   0.24389   0.48583   0.11053
H          H       0.35903   0.18873   0.53053   0.11003
H          H       0.43180   0.21938   0.57742   0.09660
H          H       0.41925   0.30433   0.57672   0.12814
H          H       0.12012   0.51217   0.42080   0.10643
H          H       0.12044   0.46352   0.39108   0.11678
H          H       0.19676   0.51873   0.34027   0.08319
H          H       0.26967   0.50440   0.37333   0.07799
H          H       0.23585   0.43487   0.31664   0.08742
H          H       0.30756   0.41978   0.34979   0.08481
H          H       0.31643   0.48550   0.26519   0.07715
H          H       0.38566   0.47488   0.29996   0.06488
H          H       0.42937   0.38823   0.28074   0.11014
H          H       0.45065   0.42263   0.22986   0.10186
H          H       0.36258   0.40005   0.24403   0.11565
H          H       0.81371   0.06585   0.48311   0.09232
H          H       0.83806   0.14411   0.48233   0.12033
H          H       0.90829   0.13863   0.33199   0.11602
H          H       0.87774   0.06161   0.33909   0.09112
H          H       0.89469   0.21159   0.37257   0.10515
H          H       0.85440   0.21560   0.43405   0.10460
H          H       0.72855   0.09327   0.24603   0.10507
H          H       0.73032   0.13804   0.31051   0.11465
H          H       0.81941   0.19350   0.29424   0.09255
H          H       0.90678   0.20135   0.21319   0.12459
H          H       0.88935   0.06273   0.96944   0.11167
H          H       0.79619   0.05394   0.00744   0.11414
H          H       0.81849   0.14845   0.96547   0.09387
H          H       0.72298   0.13919  -0.00094   0.08210
H          H       0.82349   0.09386   0.90363   0.08088
H          H       0.73956   0.14465   0.91212   0.08200
H          H       0.72807   0.04838   0.95213   0.08210
H          H       0.64478   0.09939   0.96384   0.07726
H          H       0.73569   0.05370   0.86707   0.10528
H          H       0.63119   0.05720   0.90028   0.11374
H          H       0.65875   0.10819   0.87571   0.11580
H          H       0.85733   0.25487   0.08900   0.09354
H          H       0.73243   0.32210   0.09265   0.12714
H          H       0.59671   0.22317   0.08780   0.11253
H          H       0.72602   0.16036   0.08533   0.08819
H          H       0.59315   0.33964   0.05802   0.11557
H          H       0.56908   0.34323   0.11828   0.10662
H          H       0.55216   0.01262   0.01079   0.11082
H          H       0.43591   0.08459   0.00897   0.11855
H          H       0.42643   0.15586   0.05037   0.09727
H          H       0.52796   0.15334   0.09532   0.11822
H          H       0.93381   0.89290   0.05014   0.11655
H          H       0.97960   0.92869   0.07177   0.11247
H          H       0.99197   0.85574   0.11602   0.09035
H          H       0.92570   0.90207   0.15330   0.07962
H          H       0.86693   0.83486   0.10756   0.08390
H          H       0.79995   0.88200   0.14293   0.08610
H          H       0.92526   0.79936   0.17442   0.07633
H          H       0.86024   0.84710   0.20963   0.07820
H          H       0.79787   0.77907   0.16643   0.11140
H          H       0.79668   0.77983   0.22581   0.10661
H          H       0.73235   0.82726   0.20212   0.11305
H          H       0.00479   0.25632   0.01413   0.11224
H          H       0.07989   0.31125   0.96921   0.11055
H          H       0.23002   0.28018   0.92239   0.09853
H          H       0.30112   0.19520   0.92340   0.12889
H          H       0.05301   0.98796   0.07873   0.10627
H          H       0.97511   0.03677   0.10833   0.11675
H          H       0.05495   0.98129   0.15947   0.08339
H          H       0.14683   0.99532   0.12671   0.07894
H          H       0.98726   0.06509   0.18314   0.08651
H          H       0.07710   0.08008   0.15004   0.08390
H          H       0.06698   0.01432   0.23465   0.07756
H          H       0.16015   0.02506   0.19991   0.06465
H          H       0.09823   0.11161   0.21929   0.11111
H          H       0.10284   0.07722   0.27015   0.10188
H          H       0.00647   0.09981   0.25579   0.11602
H          H       0.36315   0.43403   0.01681   0.09146
H          H       0.46538   0.35602   0.01771   0.11919
H          H       0.37931   0.36140   0.16804   0.11587
H          H       0.27853   0.43822   0.16080   0.09097
H          H       0.47883   0.28836   0.12763   0.10462
H          H       0.50391   0.28426   0.06612   0.10425
H          H       0.67849   0.75381   0.59373   0.10475
H          H       0.63167   0.68947   0.63866   0.11507
H          H       0.48685   0.70597   0.69384   0.09311
H          H       0.39140   0.78693   0.70056   0.12547
H          H       0.54844   0.03019   0.56256   0.11169
H          H       0.65058   0.99259   0.55399   0.11422
H          H       0.53333   0.03445   0.64829   0.09360
H          H       0.63817   0.00110   0.63933   0.08291
H          H       0.58275   0.09625   0.59339   0.08164
H          H       0.61572   0.08809   0.64433   0.08120
H          H       0.72364   0.04799   0.54821   0.08302
H          H       0.75577   0.03613   0.59932   0.07638
H          H       0.71094   0.13295   0.55357   0.10604
H          H       0.81176   0.09966   0.55734   0.11357
H          H       0.73306   0.12418   0.60821   0.11529
H          H       0.38759   0.91090   0.75521   0.09369
H          H       0.44531   0.90780   0.82243   0.12678
H          H       0.67986   0.91210   0.72333   0.11264
H          H       0.61357   0.91376   0.66055   0.08818
H          H       0.56742   0.94221   0.83984   0.11583
H          H       0.58788   0.88198   0.84354   0.10663
H          H       0.93468   0.98909   0.51265   0.11133
H          H       0.97948   0.99041   0.58464   0.11931
H          H       0.91712   0.94929   0.65598   0.09743
H          H       0.81809   0.90439   0.65343   0.11846
H          H       0.67370   0.94970   0.39220   0.11692
H          H       0.59146   0.92846   0.42778   0.11295
H          H       0.65267   0.88353   0.35537   0.09028
H          H       0.67278   0.84658   0.40204   0.07999
H          H       0.79846   0.89249   0.33482   0.08383
H          H       0.81819   0.85709   0.38205   0.08639
H          H       0.77552   0.82576   0.29930   0.07618
H          H       0.79275   0.79046   0.34711   0.07827
H          H       0.92329   0.83343   0.27893   0.11085
H          H       0.92321   0.77416   0.27981   0.10694
H          H       0.94074   0.79765   0.32715   0.11407
H          H       0.23959   0.98606   0.75619   0.11037
H          H       0.10975   0.03074   0.81130   0.11020
H          H       0.99034   0.07765   0.78034   0.09610
H          H       0.00351   0.07670   0.69539   0.12832
H          H       0.45910   0.92124   0.48827   0.10598
H          H       0.48808   0.89133   0.53706   0.11599
H          H       0.46287   0.84079   0.48150   0.08261
H          H       0.35705   0.87366   0.49574   0.07915
H          H       0.44732   0.81675   0.56526   0.08680
H          H       0.34258   0.84984   0.58040   0.08507
H          H       0.41828   0.76547   0.51443   0.07781
H          H       0.31437   0.80022   0.52510   0.06470
H          H       0.28985   0.78055   0.61171   0.11063
H          H       0.31952   0.72988   0.57716   0.10243
H          H       0.39333   0.74402   0.59988   0.11606
H          H       0.70337   0.98306   0.93410   0.09151
H          H       0.67991   0.98231   0.85580   0.11907
H          H       0.75977   0.83202   0.86139   0.11625
H          H       0.78295   0.83906   0.93853   0.09077
H          H       0.73262   0.87264   0.78839   0.10487
H          H       0.71169   0.93412   0.78430   0.10476
H          H       0.02512   0.74602   0.90721   0.10469
H          H       0.95898   0.81051   0.86237   0.11305
H          H       0.88843   0.79393   0.80578   0.09265
H          H       0.88151   0.71287   0.79830   0.12579
H          H       0.14075   0.46955   0.93756   0.11170
H          H       0.19639   0.50734   0.94625   0.11417
H          H       0.21562   0.46572   0.85168   0.09379
H          H       0.27780   0.49911   0.86110   0.08193
H          H       0.27242   0.40358   0.90630   0.08171
H          H       0.34771   0.41227   0.85546   0.08153
H          H       0.31953   0.45206   0.95176   0.08246
H          H       0.39072   0.46406   0.90066   0.07747
H          H       0.39757   0.36713   0.94633   0.10551
H          H       0.46847   0.40070   0.94265   0.11359
H          H       0.46535   0.37610   0.89173   0.11591
H          H       0.05533   0.58769   0.74501   0.09420
H          H       0.17666   0.59167   0.67807   0.12830
H          H       0.31632   0.58712   0.77744   0.11235
H          H       0.18933   0.58452   0.84001   0.08711
H          H       0.34961   0.55852   0.66025   0.11508
H          H       0.31318   0.61882   0.65763   0.10715
H          H       0.43756   0.51021   0.98714   0.11121
H          H       0.55506   0.50879   0.91501   0.11958
H          H       0.52277   0.55042   0.84388   0.09790
H          H       0.37617   0.59545   0.84675   0.11826
H          H       0.01655   0.55015   0.10738   0.11641
H          H       0.94941   0.57117   0.07129   0.11275
H          H       0.89229   0.61613   0.14384   0.08977
H          H       0.92220   0.65309   0.09726   0.07941
H          H       0.02611   0.60741   0.16480   0.08370
H          H       0.05761   0.64292   0.11768   0.08613
H          H       0.90080   0.67403   0.20020   0.07562
H          H       0.93064   0.70939   0.15251   0.07759
H          H       0.03589   0.66631   0.22073   0.11141
H          H       0.97744   0.72561   0.22003   0.10700
H          H       0.06561   0.70227   0.17265   0.11378
H          H       0.98119   0.51365   0.74399   0.11083
H          H       0.95153   0.46834   0.68917   0.10971
H          H       0.84760   0.42179   0.72018   0.09788
H          H       0.77507   0.42301   0.80510   0.12972
H          H       0.86837   0.57937   0.01177   0.10470
H          H       0.91634   0.60893   0.96280   0.11522
H          H       0.78516   0.65981   0.01824   0.08179
H          H       0.72646   0.62675   0.00408   0.07871
H          H       0.82941   0.68345   0.93435   0.08578
H          H       0.77251   0.65039   0.91938   0.08431
H          H       0.69844   0.73483   0.98518   0.07733
H          H       0.63977   0.70017   0.97447   0.06451
H          H       0.68209   0.71974   0.88789   0.11115
H          H       0.62695   0.77051   0.92236   0.10224
H          H       0.73755   0.75618   0.89969   0.11610
H          H       0.61949   0.51723   0.56565   0.09096
H          H       0.51789   0.51784   0.64410   0.11838
H          H       0.45323   0.66814   0.63869   0.11542
H          H       0.55991   0.66124   0.56148   0.09201
H          H       0.39500   0.62740   0.71207   0.10426
H          H       0.43122   0.56589   0.71589   0.10382
H          H       0.93268   0.59346   0.74600   0.10360
H          H       0.82119   0.63838   0.81018   0.11517
H          H       0.69335   0.69363   0.79317   0.09196
H          H       0.67935   0.70040   0.71209   0.12529
H          H       0.08075   0.56163   0.47019   0.11162
H          H       0.14459   0.55400   0.50809   0.11461
H          H       0.06831   0.64778   0.46564   0.09381
H          H       0.14011   0.63918   0.49884   0.08210
H          H       0.17933   0.59318   0.40377   0.08138
H          H       0.20396   0.64415   0.41187   0.08178
H          H       0.27244   0.54804   0.45195   0.08222
H          H       0.29245   0.59922   0.46378   0.07690
H          H       0.34415   0.55366   0.36693   0.10571
H          H       0.41186   0.55742   0.40019   0.11298
H          H       0.35735   0.60830   0.37571   0.11573
H          H       0.79934   0.75456   0.58863   0.09480
H          H       0.85333   0.82194   0.59202   0.12700
H          H       0.09263   0.72321   0.58772   0.11267
H          H       0.02850   0.66025   0.58583   0.08702
H          H       0.00910   0.83975   0.55788   0.11570
H          H       0.96961   0.84326   0.61812   0.10675
H          H       0.42251   0.51327   0.51053   0.11101
H          H       0.46717   0.58564   0.50947   0.11888
H          H       0.36373   0.65609   0.55195   0.09711
H          H       0.22122   0.65235   0.59790   0.11875
H          H       0.12495   0.39144   0.55007   0.11671
H          H       0.02112   0.42670   0.57045   0.11406
H          H       0.03709   0.35434   0.61565   0.09111
H          H       0.01907   0.40103   0.65272   0.08016
H          H       0.19108   0.33407   0.60759   0.08298
H          H       0.17518   0.38157   0.64262   0.08596
H          H       0.10137   0.29884   0.67457   0.07632
H          H       0.08317   0.34691   0.70949   0.07842
H          H       0.25677   0.27879   0.66702   0.11118
H          H       0.19750   0.27995   0.72633   0.10679
H          H       0.23821   0.32727   0.70242   0.11341
H          H       0.72630   0.75611   0.51416   0.11048
H          H       0.64096   0.81127   0.46947   0.11010
H          H       0.56820   0.78062   0.42258   0.09691
H          H       0.58074   0.69567   0.42328   0.12818
H          H       0.87988   0.48783   0.57920   0.10637
H          H       0.87956   0.53648   0.60892   0.11666
H          H       0.80323   0.48127   0.65973   0.08292
H          H       0.73033   0.49560   0.62667   0.07819
H          H       0.76415   0.56513   0.68335   0.08720
H          H       0.69243   0.58022   0.65021   0.08501
H          H       0.68357   0.51450   0.73480   0.07688
H          H       0.61434   0.52512   0.70003   0.06505
H          H       0.57063   0.61177   0.71925   0.11041
H          H       0.54935   0.57737   0.77014   0.10173
H          H       0.63741   0.59995   0.75597   0.11550
H          H       0.18628   0.93415   0.51689   0.09243
H          H       0.16194   0.85589   0.51766   0.12055
H          H       0.09171   0.86137   0.66800   0.11589
H          H       0.12226   0.93839   0.66091   0.09098
H          H       0.10531   0.78841   0.62742   0.10484
H          H       0.14560   0.78440   0.56595   0.10460
H          H       0.27144   0.90673   0.75397   0.10502
H          H       0.26968   0.86196   0.68949   0.11486
H          H       0.18058   0.80650   0.70576   0.09256
H          H       0.09321   0.79865   0.78681   0.12462
H          H       0.11064   0.93727   0.03056   0.11166
H          H       0.20380   0.94606   0.99256   0.11417
H          H       0.18151   0.85155   0.03453   0.09386
H          H       0.27702   0.86081   0.00094   0.08204
H          H       0.17651   0.90614   0.09637   0.08089
H          H       0.26043   0.85535   0.08788   0.08178
H          H       0.27193   0.95162   0.04786   0.08242
H          H       0.35522   0.90061   0.03616   0.07725
H          H       0.26430   0.94630   0.13293   0.10530
H          H       0.36881   0.94280   0.09971   0.11368
H          H       0.34125   0.89181   0.12428   0.11553
H          H       0.14266   0.74513   0.91100   0.09359
H          H       0.26756   0.67791   0.90735   0.12716
H          H       0.40329   0.77683   0.91220   0.11234
H          H       0.27397   0.83964   0.91467   0.08822
H          H       0.40685   0.66036   0.94198   0.11536
H          H       0.43092   0.65677   0.88171   0.10676
H          H       0.44784   0.98738   0.98921   0.11071
H          H       0.56408   0.91541   0.99103   0.11828
H          H       0.57357   0.84414   0.94963   0.09711
H          H       0.47203   0.84666   0.90468   0.11823
H          H       0.06618   0.10710   0.94985   0.11651
H          H       0.02040   0.07132   0.92823   0.11261
H          H       0.00803   0.14426   0.88398   0.09048
H          H       0.07430   0.09794   0.84670   0.07978
H          H       0.13307   0.16514   0.89243   0.08373
H          H       0.20005   0.11800   0.85706   0.08591
H          H       0.07473   0.20064   0.82558   0.07652
H          H       0.13975   0.15290   0.79036   0.07827
H          H       0.20213   0.22094   0.83357   0.11125
H          H       0.20331   0.22017   0.77419   0.10688
H          H       0.26765   0.17274   0.79788   0.11281
H          H       0.99520   0.74368   0.98587   0.11217
H          H       0.92011   0.68875   0.03078   0.11042
H          H       0.76998   0.71982   0.07761   0.09771
H          H       0.69888   0.80480   0.07660   0.12903
H          H       0.94699   0.01204   0.92126   0.10632
H          H       0.02489   0.96324   0.89167   0.11660
H          H       0.94504   0.01871   0.84053   0.08351
H          H       0.85317   0.00468   0.87329   0.07896
H          H       0.01274   0.93492   0.81686   0.08642
H          H       0.92290   0.91992   0.84995   0.08373
H          H       0.93301   0.98569   0.76534   0.07772
H          H       0.83985   0.97494   0.80009   0.06485
H          H       0.90177   0.88839   0.78070   0.11099
H          H       0.89716   0.92279   0.72985   0.10209
H          H       0.99353   0.90020   0.74420   0.11593
H          H       0.63685   0.56597   0.98319   0.09119
H          H       0.53462   0.64398   0.98229   0.11914
H          H       0.62069   0.63861   0.83196   0.11607
H          H       0.72147   0.56178   0.83920   0.09101
H          H       0.52117   0.71164   0.87237   0.10486
H          H       0.49609   0.71574   0.93387   0.10411
C          C       0.51942   0.18368   0.34853   0.31374
C          C       0.43586   0.19274   0.37830  -0.17416
C          C       0.38413   0.23909   0.38268  -0.07545
C          C       0.41100   0.27557   0.35772  -0.13634
C          C       0.49202   0.26605   0.32708  -0.07012
C          C       0.54556   0.22112   0.32289  -0.21769
C          C       0.40089   0.15564   0.40303   0.44182
C          C       0.44800   0.03563   0.40554   0.46572
C          C       0.41034   0.99584   0.42020  -0.26930
C          C       0.40475   0.97325   0.37721  -0.13462
C          C       0.37592   0.92879   0.38863  -0.14721
C          C       0.28455   0.93720   0.41782  -0.11277
C          C       0.25557   0.89272   0.42515  -0.37513
C          C       0.54782   0.08897   0.25040   0.10175
C          C       0.51523   0.09051   0.21294  -0.19729
C          C       0.43209   0.08962   0.22118   0.16085
C          C       0.38522   0.08818   0.26758  -0.20588
C          C       0.42237   0.08710   0.30317   0.09103
C          C       0.39766   0.08990   0.18057  -0.19972
C          C       0.17725   0.08022   0.41846   0.30465
C          C       0.14519   0.05462   0.45819  -0.16848
C          C       0.08872   0.02975   0.45614  -0.08108
C          C       0.06479   0.02864   0.41596  -0.12787
C          C       0.09952   0.05208   0.37612  -0.06155
C          C       0.15484   0.07723   0.37726  -0.22882
C          C       0.17265   0.05004   0.50057   0.44031
C          C       0.30187   0.08739   0.54761   0.46086
C          C       0.34025   0.08055   0.58738  -0.26220
C          C       0.31129   0.12374   0.61884  -0.13343
C          C       0.21752   0.13699   0.64381  -0.15446
C          C       0.18967   0.18050   0.67436  -0.10410
C          C       0.09553   0.19463   0.69847  -0.37655
C          C       0.87223   0.96964   0.32241   0.30645
C          C       0.80451   0.99568   0.30471  -0.18065
C          C       0.81290   0.99417   0.25652  -0.06996
C          C       0.88577   0.96868   0.22570  -0.13662
C          C       0.95222   0.94294   0.24323  -0.06050
C          C       0.94566   0.94326   0.29059  -0.22185
C          C       0.72677   0.02517   0.33417   0.44072
C          C       0.63576   0.06261   0.44813   0.46780
C          C       0.56319   0.09690   0.47925  -0.26369
C          C       0.58845   0.13908   0.49041  -0.13505
C          C       0.60774   0.17063   0.44815  -0.15672
C          C       0.63348   0.21238   0.45908  -0.10221
C          C       0.65907   0.24120   0.41535  -0.37004
C          C       0.28445   0.04951   0.08358   0.09606
C          C       0.29720   0.05031   0.12708  -0.19746
C          C       0.28148   0.09315   0.14822   0.16425
C          C       0.25277   0.13369   0.12410  -0.20120
C          C       0.24035   0.13002   0.08084   0.09792
C          C       0.30352   0.09461   0.19280  -0.20602
C          C       0.04955   0.31657   0.15241   0.31336
C          C       0.00601   0.30748   0.12195  -0.17313
C          C       0.00597   0.26108   0.11687  -0.07925
C          C       0.04422   0.22453   0.14181  -0.13166
C          C       0.08393   0.23405   0.17311  -0.07039
C          C       0.08758   0.27904   0.17790  -0.21749
C          C       0.95882   0.34457   0.09716   0.44214
C          C       0.88977   0.46462   0.09424   0.46729
C          C       0.82698   0.50437   0.07961  -0.27029
C          C       0.75581   0.52670   0.12263  -0.13266
C          C       0.69369   0.57116   0.11144  -0.14945
C          C       0.63991   0.56269   0.08221  -0.11208
C          C       0.57361   0.60708   0.07491  -0.37534
C          C       0.88573   0.41225   0.24924   0.10134
C          C       0.81752   0.41013   0.28655  -0.20060
C          C       0.74194   0.41073   0.27817   0.16057
C          C       0.73987   0.41264   0.23175  -0.20622
C          C       0.81127   0.41431   0.19628   0.09166
C          C       0.66772   0.40974   0.31880  -0.19723
C          C       0.67486   0.41988   0.08143   0.30599
C          C       0.65694   0.44556   0.04174  -0.16958
C          C       0.57366   0.47067   0.04391  -0.08212
C          C       0.50871   0.47180   0.08416  -0.12913
C          C       0.52708   0.44820   0.12395  -0.06035
C          C       0.60860   0.42295   0.12268  -0.22965
C          C       0.72208   0.45011  -0.00061   0.44377
C          C       0.93550   0.41272   0.95269   0.46258
C          C       0.00698   0.41967   0.91319  -0.26193
C          C       0.05316   0.37651   0.88177  -0.13187
C          C       0.99798   0.36312   0.85657  -0.15473
C          C       0.04431   0.31966   0.82600  -0.10290
C          C       0.98845   0.30554   0.80177  -0.37635
C          C       0.16490   0.53049   0.17720   0.30640
C          C       0.10561   0.50441   0.19500  -0.17863
C          C       0.06417   0.50616   0.24317  -0.07134
C          C       0.08060   0.53194   0.27385  -0.13465
C          C       0.13891   0.55761   0.25628  -0.06417
C          C       0.17998   0.55709   0.20893  -0.22282
C          C       0.08684   0.47471   0.16570   0.43919
C          C       0.14702   0.43698   0.05186   0.46547
C          C       0.13958   0.40267   0.02080  -0.26214
C          C       0.21801   0.36046   0.00977  -0.13462
C          C       0.22654   0.32907   0.05216  -0.15504
C          C       0.30481   0.28729   0.04132  -0.10185
C          C       0.31542   0.25849   0.08508  -0.37027
C          C       0.41826   0.45022   0.41658   0.09590
C          C       0.47482   0.44951   0.37296  -0.19470
C          C       0.52265   0.40669   0.35165   0.16109
C          C       0.51064   0.36614   0.37584  -0.20059
C          C       0.45170   0.36973   0.41920   0.09771
C          C       0.59011   0.40526   0.30682  -0.20389
C          C       0.20214   0.34864   0.31698   0.31275
C          C       0.12811   0.37862   0.30758  -0.17273
C          C       0.12278   0.38297   0.26121  -0.07558
C          C       0.18616   0.35796   0.22487  -0.13569
C          C       0.25745   0.32732   0.23466  -0.06919
C          C       0.26577   0.32301   0.27969  -0.21798
C          C       0.05623   0.40366   0.34439   0.44042
C          C       0.98248   0.40605   0.46435   0.46897
C          C       0.90480   0.42061   0.50388  -0.27071
C          C       0.87722   0.37754   0.52668  -0.13350
C          C       0.80428   0.38886   0.57123  -0.14937
C          C       0.72117   0.41796   0.56288  -0.11185
C          C       0.64795   0.42511   0.60740  -0.37486
C          C       0.13602   0.25093   0.41140   0.10215
C          C       0.10536   0.21340   0.40965  -0.19876
C          C       0.02142   0.22148   0.41041   0.15947
C          C       0.97276   0.26782   0.41195  -0.20566
C          C       0.00846   0.30349   0.41324   0.09061
C          C       0.98774   0.18072   0.41002  -0.19864
C          C       0.75787   0.41941   0.41830   0.30554
C          C       0.70046   0.45863   0.44461  -0.17102
C          C       0.61982   0.45596   0.47004  -0.07921
C          C       0.59553   0.41555   0.47099  -0.12752
C          C       0.65369   0.37615   0.44686  -0.06235
C          C       0.73343   0.37795   0.42116  -0.22827
C          C       0.72319   0.50105   0.44907   0.44410
C          C       0.88944   0.54831   0.41255   0.46264
C          C       0.92011   0.58822   0.41991  -0.26312
C          C       0.93476   0.61974   0.37678  -0.13389
C          C       0.85448   0.64443   0.36312  -0.15404
C          C       0.87018   0.67471   0.31937  -0.10454
C          C       0.79016   0.69853   0.30507  -0.37624
C          C       0.34127   0.32235   0.53037   0.30874
C          C       0.29942   0.30480   0.50433  -0.17939
C          C       0.30640   0.25660   0.50565  -0.07186
C          C       0.35401   0.22570   0.53106  -0.13490
C          C       0.39481   0.24306   0.55688  -0.06302
C          C       0.38839   0.29040   0.55670  -0.22251
C          C       0.25087   0.33452   0.47510   0.44067
C          C       0.19863   0.44839   0.43713   0.46534
C          C       0.16030   0.47963   0.40278  -0.26523
C          C       0.22780   0.49065   0.36056  -0.13404
C          C       0.27841   0.44829   0.32919  -0.15750
C          C       0.34602   0.45905   0.28743  -0.10198
C          C       0.40027   0.41525   0.25879  -0.36868
C          C       0.83404   0.08357   0.45052   0.09519
C          C       0.84771   0.12703   0.44972  -0.19795
C          C       0.87487   0.14817   0.40685   0.16319
C          C       0.88654   0.12413   0.36631  -0.20025
C          C       0.87028   0.08094   0.36999   0.09711
C          C       0.89830   0.19276   0.40534  -0.20572
C          C       0.86688   0.15236   0.18356   0.31131
C          C       0.81393   0.12208   0.19256  -0.17199
C          C       0.76703   0.11720   0.23893  -0.07851
C          C       0.76893   0.14200   0.27552  -0.13444
C          C       0.81883   0.17293   0.26611  -0.07099
C          C       0.86740   0.17776   0.22113  -0.21572
C          C       0.80410   0.09716   0.15545   0.44059
C          C       0.85450   0.09438   0.03536   0.46675
C          C       0.83120   0.07982   0.99564  -0.27092
C          C       0.78222   0.12283   0.97325  -0.13247
C          C       0.76437   0.11160   0.92884  -0.14926
C          C       0.70228   0.08230   0.93724  -0.11100
C          C       0.68084   0.07488   0.89269  -0.37515
C          C       0.79837   0.24932   0.08875   0.10308
C          C       0.72829   0.28677   0.09069  -0.19952
C          C       0.65335   0.27856   0.08976   0.16240
C          C       0.65280   0.23220   0.08802  -0.20658
C          C       0.72565   0.19661   0.08647   0.09001
C          C       0.57848   0.31922   0.09015  -0.19919
C          C       0.59515   0.08156   0.07997   0.30269
C          C       0.60279   0.04181   0.05448  -0.16836
C          C       0.54442   0.04385   0.02952  -0.08024
C          C       0.48051   0.08400   0.02820  -0.12756
C          C       0.47526   0.12383   0.05167  -0.06087
C          C       0.53163   0.12270   0.07688  -0.22740
C          C       0.67230  -0.00062   0.05015   0.44114
C          C       0.84850   0.95266   0.08750   0.46215
C          C       0.92691   0.91315   0.08059  -0.26121
C          C       0.93012   0.88139   0.12361  -0.13212
C          C       0.86153   0.85624   0.13702  -0.15474
C          C       0.86421   0.82566   0.18057  -0.10598
C          C       0.79406   0.80158   0.19455  -0.37433
C          C       0.19469   0.17749   0.96969   0.30621
C          C       0.10946   0.19524   0.99579  -0.17914
C          C       0.06993   0.24347   0.99438  -0.07321
C          C       0.11220   0.27425   0.96886  -0.13427
C          C       0.19602   0.25668   0.94309  -0.06370
C          C       0.23644   0.20930   0.94336  -0.22170
C          C       0.06132   0.16570   0.02528   0.43858
C          C       0.08418   0.05173   0.06270   0.46688
C          C       0.04264   0.02046   0.09684  -0.26579
C          C       0.07854   0.00929   0.13925  -0.13554
C          C       0.05569   0.05162   0.17063  -0.15604
C          C       0.09224   0.04082   0.21245  -0.10146
C          C       0.07408   0.08459   0.24115  -0.37025
C          C       0.36861   0.41634   0.04941   0.09562
C          C       0.42506   0.37297   0.05030  -0.19643
C          C       0.43018   0.35178   0.09321   0.16301
C          C       0.37728   0.37583   0.13370  -0.20032
C          C       0.32143   0.41895   0.12994   0.09751
C          C       0.49644   0.30712   0.09483  -0.20452
C          C       0.48057   0.81632   0.65146   0.31366
C          C       0.56414   0.80726   0.62170  -0.17413
C          C       0.61587   0.76092   0.61732  -0.07555
C          C       0.58900   0.72443   0.64228  -0.13631
C          C       0.50797   0.73395   0.67292  -0.07020
C          C       0.45443   0.77889   0.67711  -0.21766
C          C       0.59911   0.84437   0.59697   0.44194
C          C       0.55200   0.96438   0.59446   0.46586
C          C       0.58966   0.00417   0.57980  -0.26926
C          C       0.59525   0.02675   0.62278  -0.13450
C          C       0.62407   0.07121   0.61137  -0.14718
C          C       0.71545   0.06280   0.58217  -0.11309
C          C       0.74442   0.10728   0.57485  -0.37500
C          C       0.45217   0.91103   0.74960   0.10162
C          C       0.48476   0.90949   0.78705  -0.19714
C          C       0.56790   0.91038   0.77882   0.16055
C          C       0.61478   0.91182   0.73241  -0.20580
C          C       0.57763   0.91290   0.69682   0.09100
C          C       0.60234   0.91010   0.81943  -0.19963
C          C       0.82274   0.91979   0.58154   0.30484
C          C       0.85481   0.94538   0.54181  -0.16850
C          C       0.91127   0.97025   0.54385  -0.08093
C          C       0.93521   0.97136   0.58403  -0.12789
C          C       0.90047   0.94792   0.62388  -0.06135
C          C       0.84515   0.92277   0.62274  -0.22922
C          C       0.82735   0.94997   0.49943   0.44001
C          C       0.69813   0.91261   0.45238   0.46075
C          C       0.65975   0.91946   0.41262  -0.26219
C          C       0.68870   0.87626   0.38116  -0.13340
C          C       0.78247   0.86301   0.35618  -0.15444
C          C       0.81032   0.81950   0.32564  -0.10410
C          C       0.90447   0.80537   0.30152  -0.37679
C          C       0.12777   0.03036   0.67759   0.30616
C          C       0.19548   0.00432   0.69529  -0.18064
C          C       0.18709   0.00583   0.74347  -0.07006
C          C       0.11423   0.03132   0.77430  -0.13652
C          C       0.04778   0.05707   0.75677  -0.06052
C          C       0.05434   0.05675   0.70941  -0.22162
C          C       0.27322   0.97483   0.66582   0.44096
C          C       0.36424   0.93739   0.55187   0.46788
C          C       0.43681   0.90310   0.52075  -0.26380
C          C       0.41155   0.86092   0.50959  -0.13498
C          C       0.39226   0.82937   0.55185  -0.15687
C          C       0.36652   0.78762   0.54092  -0.10223
C          C       0.34093   0.75880   0.58465  -0.37022
C          C       0.71554   0.95049   0.91642   0.09644
C          C       0.70280   0.94970   0.87292  -0.19757
C          C       0.71852   0.90685   0.85178   0.16432
C          C       0.74723   0.86631   0.87590  -0.20117
C          C       0.75965   0.86998   0.91916   0.09771
C          C       0.69648   0.90539   0.80720  -0.20599
C          C       0.95044   0.68343   0.84758   0.31329
C          C       0.99398   0.69252   0.87805  -0.17330
C          C       0.99403   0.73892   0.88312  -0.07920
C          C       0.95577   0.77547   0.85818  -0.13172
C          C       0.91606   0.76595   0.82689  -0.07009
C          C       0.91241   0.72097   0.82210  -0.21759
C          C       0.04118   0.65543   0.90283   0.44240
C          C       0.11022   0.53538   0.90575   0.46721
C          C       0.17302   0.49563   0.92039  -0.27016
C          C       0.24418   0.47330   0.87737  -0.13259
C          C       0.30631   0.42885   0.88856  -0.14944
C          C       0.36009   0.43732   0.91779  -0.11224
C          C       0.42639   0.39292   0.92509  -0.37517
C          C       0.11427   0.58775   0.75075   0.10162
C          C       0.18248   0.58987   0.71345  -0.20072
C          C       0.25806   0.58927   0.72183   0.16063
C          C       0.26013   0.58737   0.76825  -0.20646
C          C       0.18873   0.58569   0.80371   0.09168
C          C       0.33227   0.59026   0.68119  -0.19745
C          C       0.32513   0.58012   0.91856   0.30591
C          C       0.34306   0.55444   0.95826  -0.16954
C          C       0.42633   0.52933   0.95608  -0.08215
C          C       0.49129   0.52820   0.91583  -0.12933
C          C       0.47292   0.55180   0.87605  -0.06025
C          C       0.39139   0.57705   0.87732  -0.22949
C          C       0.27791   0.54990   0.00060   0.44372
C          C       0.06450   0.58728   0.04730   0.46272
C          C       0.99302   0.58033   0.08681  -0.26202
C          C       0.94684   0.62349   0.11823  -0.13188
C          C       0.00201   0.63688   0.14343  -0.15468
C          C       0.95568   0.68034   0.17400  -0.10290
C          C       0.01154   0.69446   0.19823  -0.37650
C          C       0.83509   0.46951   0.82280   0.30662
C          C       0.89439   0.49559   0.80500  -0.17878
C          C       0.93582   0.49384   0.75683  -0.07135
C          C       0.91940   0.46806   0.72615  -0.13452
C          C       0.86108   0.44239   0.74371  -0.06409
C          C       0.82002   0.44291   0.79106  -0.22299
C          C       0.91315   0.52529   0.83430   0.43914
C          C       0.85298   0.56302   0.94813   0.46534
C          C       0.86042   0.59733   0.97919  -0.26212
C          C       0.78198   0.63954   0.99023  -0.13454
C          C       0.77345   0.67093   0.94784  -0.15510
C          C       0.69518   0.71271   0.95868  -0.10179
C          C       0.68457   0.74151   0.91492  -0.37016
C          C       0.58174   0.54978   0.58342   0.09589
C          C       0.52518   0.55049   0.62704  -0.19466
C          C       0.47735   0.59331   0.64835   0.16105
C          C       0.48936   0.63386   0.62416  -0.20062
C          C       0.54830   0.63027   0.58080   0.09781
C          C       0.40989   0.59474   0.69318  -0.20394
C          C       0.79785   0.65136   0.68302   0.31272
C          C       0.87188   0.62138   0.69242  -0.17292
C          C       0.87721   0.61703   0.73879  -0.07565
C          C       0.81383   0.64204   0.77512  -0.13581
C          C       0.74255   0.67269   0.76534  -0.06916
C          C       0.73423   0.67699   0.72031  -0.21797
C          C       0.94377   0.59634   0.65560   0.44071
C          C       0.01751   0.59395   0.53565   0.46918
C          C       0.09520   0.57940   0.49612  -0.27069
C          C       0.12278   0.62246   0.47332  -0.13359
C          C       0.19572   0.61114   0.42877  -0.14916
C          C       0.27883   0.58204   0.43712  -0.11142
C          C       0.35204   0.57489   0.39260  -0.37459
C          C       0.86398   0.74907   0.58860   0.10234
C          C       0.89464   0.78660   0.59035  -0.19876
C          C       0.97858   0.77852   0.58959   0.15945
C          C       0.02724   0.73218   0.58805  -0.20585
C          C       0.99153   0.69651   0.58675   0.09064
C          C       0.01226   0.81928   0.58997  -0.19845
C          C       0.24213   0.58059   0.58170   0.30558
C          C       0.29953   0.54137   0.55539  -0.17088
C          C       0.38018   0.54404   0.52996  -0.07945
C          C       0.40447   0.58445   0.52901  -0.12733
C          C       0.34630   0.62385   0.55314  -0.06224
C          C       0.26657   0.62206   0.57884  -0.22817
C          C       0.27680   0.49895   0.55094   0.44409
C          C       0.11056   0.45169   0.58745   0.46274
C          C       0.07988   0.41179   0.58008  -0.26323
C          C       0.06523   0.38026   0.62321  -0.13374
C          C       0.14552   0.35557   0.63688  -0.15405
C          C       0.12981   0.32529   0.68063  -0.10437
C          C       0.20983   0.30147   0.69493  -0.37620
C          C       0.65872   0.67766   0.46963   0.30806
C          C       0.70058   0.69520   0.49567  -0.17916
C          C       0.69360   0.74340   0.49435  -0.07215
C          C       0.64599   0.77430   0.46893  -0.13467
C          C       0.60519   0.75694   0.44311  -0.06322
C          C       0.61160   0.70960   0.44330  -0.22195
C          C       0.74913   0.66548   0.52489   0.44072
C          C       0.80137   0.55161   0.56287   0.46531
C          C       0.83970   0.52038   0.59722  -0.26525
C          C       0.77219   0.50935   0.63944  -0.13407
C          C       0.72159   0.55172   0.67081  -0.15735
C          C       0.65397   0.54095   0.71256  -0.10206
C          C       0.59972   0.58475   0.74121  -0.36861
C          C       0.16596   0.91643   0.54947   0.09551
C          C       0.15229   0.87297   0.55028  -0.19811
C          C       0.12512   0.85183   0.59315   0.16311
C          C       0.11345   0.87587   0.63369  -0.20042
C          C       0.12972   0.91907   0.63001   0.09719
C          C       0.10169   0.80724   0.59466  -0.20569
C          C       0.13312   0.84764   0.81644   0.31150
C          C       0.18607   0.87792   0.80743  -0.17222
C          C       0.23297   0.88280   0.76107  -0.07828
C          C       0.23106   0.85801   0.72448  -0.13455
C          C       0.18117   0.82707   0.73389  -0.07071
C          C       0.13259   0.82224   0.77887  -0.21590
C          C       0.19589   0.90284   0.84455   0.44062
C          C       0.14550   0.90562   0.96463   0.46645
C          C       0.16880   0.92018   0.00436  -0.27078
C          C       0.21778   0.87717   0.02674  -0.13260
C          C       0.23562   0.88840   0.07116  -0.14910
C          C       0.29772   0.91770   0.06276  -0.11116
C          C       0.31915   0.92512   0.10731  -0.37513
C          C       0.20163   0.75068   0.91125   0.10327
C          C       0.27171   0.71323   0.90931  -0.19976
C          C       0.34665   0.72144   0.91024   0.16243
C          C       0.34720   0.76780   0.91197  -0.20659
C          C       0.27435   0.80339   0.91353   0.08998
C          C       0.42152   0.68078   0.90984  -0.19920
C          C       0.40485   0.91844   0.92003   0.30260
C          C       0.39721   0.95819   0.94552  -0.16825
C          C       0.45558   0.95615   0.97048  -0.08024
C          C       0.51949   0.91600   0.97180  -0.12747
C          C       0.52473   0.87617   0.94833  -0.06104
C          C       0.46836   0.87730   0.92312  -0.22729
C          C       0.32769   0.00063   0.94984   0.44101
C          C       0.15150   0.04734   0.91249   0.46212
C          C       0.07308   0.08685   0.91941  -0.26151
C          C       0.06988   0.11861   0.87639  -0.13201
C          C       0.13847   0.14377   0.86298  -0.15468
C          C       0.13579   0.17434   0.81943  -0.10586
C          C       0.20593   0.19842   0.80544  -0.37429
C          C       0.80531   0.82251   0.03030   0.30638
C          C       0.89054   0.80476   0.00421  -0.17914
C          C       0.93006   0.75653   0.00562  -0.07333
C          C       0.88780   0.72575   0.03114  -0.13431
C          C       0.80397   0.74333   0.05691  -0.06295
C          C       0.76356   0.79070   0.05663  -0.22179
C          C       0.93867   0.83430   0.97472   0.43853
C          C       0.91581   0.94827   0.93730   0.46695
C          C       0.95736   0.97954   0.90315  -0.26610
C          C       0.92145   0.99071   0.86075  -0.13522
C          C       0.94431   0.94838   0.82937  -0.15607
C          C       0.90776   0.95918   0.78755  -0.10158
C          C       0.92592   0.91541   0.75885  -0.37018
C          C       0.63139   0.58366   0.95059   0.09567
C          C       0.57494   0.62703   0.94970  -0.19657
C          C       0.56982   0.64823   0.90679   0.16316
C          C       0.62271   0.62417   0.86630  -0.20024
C          C       0.67857   0.58105   0.87006   0.09748
C          C       0.50356   0.69288   0.90517  -0.20458
N          N       0.44776   0.11112   0.39791  -0.30340
N          N       0.40438   0.07856   0.41948  -0.34587
N          N       0.50262   0.08707   0.29509  -0.25175
N          N       0.22699   0.07271   0.50420  -0.31588
N          N       0.25106   0.06315   0.54553  -0.31350
N          N       0.71633   0.02839   0.38011  -0.30362
N          N       0.64176   0.06039   0.40353  -0.32372
N          N       0.25613   0.08866   0.06067  -0.24619
N          N       0.95635   0.38905   0.10222  -0.30564
N          N       0.90216   0.42168   0.08056  -0.34573
N          N       0.88320   0.41452   0.20454  -0.25000
N          N       0.80267   0.42754   0.99598  -0.31743
N          N       0.85853   0.43719   0.95477  -0.31527
N          N       0.12565   0.47129   0.11979  -0.30377
N          N       0.10642   0.43918   0.09648  -0.32472
N          N       0.40613   0.41107   0.43946  -0.24862
N          N       0.05792   0.39841   0.38901  -0.30338
N          N       0.98188   0.42003   0.42137  -0.34709
N          N       0.08857   0.29554   0.41341  -0.24942
N          N       0.80025   0.50476   0.42668  -0.31684
N          N       0.81462   0.54592   0.43676  -0.31518
N          N       0.24473   0.38033   0.47150  -0.30407
N          N       0.20190   0.40387   0.43958  -0.32300
N          N       0.84470   0.06075   0.41137  -0.24651
N          N       0.84587   0.10229   0.11094  -0.30742
N          N       0.82429   0.08057   0.07836  -0.34510
N          N       0.79787   0.20471   0.08633  -0.25071
N          N       0.73066   0.99608   0.07252  -0.31566
N          N       0.79604   0.95482   0.06296  -0.31414
N          N       0.09684   0.11982   0.02861  -0.30171
N          N       0.04567   0.09634   0.06060  -0.32432
N          N       0.31703   0.43907   0.08852  -0.24574
N          N       0.55223   0.88888   0.60209  -0.30335
N          N       0.59562   0.92144   0.58052  -0.34589
N          N       0.49737   0.91294   0.70491  -0.25148
N          N       0.77301   0.92729   0.49580  -0.31597
N          N       0.74894   0.93686   0.45447  -0.31306
N          N       0.28367   0.97161   0.61988  -0.30329
N          N       0.35824   0.93961   0.59647  -0.32426
N          N       0.74387   0.91134   0.93933  -0.24652
N          N       0.04364   0.61095   0.89778  -0.30555
N          N       0.09784   0.57832   0.91944  -0.34595
N          N       0.11680   0.58548   0.79545  -0.25010
N          N       0.19733   0.57246   0.00401  -0.31694
N          N       0.14146   0.56281   0.04522  -0.31583
N          N       0.87435   0.52871   0.88020  -0.30381
N          N       0.89358   0.56082   0.90352  -0.32454
N          N       0.59386   0.58894   0.56054  -0.24847
N          N       0.94208   0.60160   0.61099  -0.30316
N          N       0.01811   0.57998   0.57863  -0.34771
N          N       0.91143   0.70446   0.58659  -0.24941
N          N       0.19974   0.49524   0.57332  -0.31691
N          N       0.18538   0.45409   0.56324  -0.31528
N          N       0.75527   0.61967   0.52850  -0.30370
N          N       0.79810   0.59613   0.56042  -0.32346
N          N       0.15530   0.93925   0.58863  -0.24664
N          N       0.15412   0.89771   0.88906  -0.30721
N          N       0.17571   0.91943   0.92164  -0.34500
N          N       0.20213   0.79530   0.91367  -0.25043
N          N       0.26934   0.00393   0.92748  -0.31554
N          N       0.20396   0.04519   0.93704  -0.31413
N          N       0.90316   0.88018   0.97139  -0.30156
N          N       0.95433   0.90366   0.93940  -0.32429
N          N       0.68296   0.56093   0.91148  -0.24581
O          O       0.57581   0.14217   0.34350  -0.48378
O          O       0.32342   0.16551   0.42863  -0.46694
O          O       0.52287   0.02688   0.37696  -0.47790
O          O       0.22726   0.10708   0.41746  -0.50462
O          O       0.14682   0.02263   0.53342  -0.46520
O          O       0.32100   0.11766   0.51457  -0.49311
O          O       0.87125   0.96844   0.36714  -0.48498
O          O       0.66876   0.04880   0.31534  -0.46452
O          O       0.69435   0.03675   0.46618  -0.49962
O          O       0.05785   0.35820   0.15862  -0.48181
O          O       0.91696   0.33461   0.07146  -0.46710
O          O       0.92774   0.47331   0.12272  -0.47897
O          O       0.75049   0.39278   0.08249  -0.50489
O          O       0.70157   0.47743   0.96650  -0.46700
O          O       0.95142   0.38218   0.98561  -0.49407
O          O       0.20773   0.53150   0.13247  -0.48484
O          O       0.03360   0.45116   0.18461  -0.46312
O          O       0.19782   0.46279   0.03379  -0.49854
O          O       0.21652   0.34340   0.35866  -0.48344
O          O       0.98934   0.42970   0.33399  -0.46555
O          O       0.04858   0.37742   0.47327  -0.48037
O          O       0.83355   0.41939   0.39061  -0.50390
O          O       0.66975   0.53386   0.47627  -0.46710
O          O       0.93886   0.51565   0.38194  -0.49513
O          O       0.33927   0.36702   0.53169  -0.48621
O          O       0.21515   0.31605   0.45205  -0.46314
O          O       0.23189   0.46628   0.46282  -0.49835
O          O       0.91728   0.15830   0.14199  -0.48303
O          O       0.75269   0.07128   0.16540  -0.46559
O          O       0.90109   0.12286   0.02666  -0.47932
O          O       0.64389   0.08259   0.10702  -0.50520
O          O       0.67883   0.96628   0.02326  -0.46705
O          O       0.83384   0.98553   0.11805  -0.49371
O          O       0.23835   0.13274   0.96833  -0.48322
O          O       0.98454   0.18453   0.04883  -0.46239
O          O       0.16079   0.03378   0.03683  -0.49902
O          O       0.42419   0.85783   0.65650  -0.48357
O          O       0.67657   0.83449   0.57137  -0.46704
O          O       0.47712   0.97312   0.62304  -0.47780
O          O       0.77273   0.89293   0.58254  -0.50482
O          O       0.85318   0.97737   0.46658  -0.46509
O          O       0.67900   0.88235   0.48543  -0.49318
O          O       0.12875   0.03156   0.63286  -0.48453
O          O       0.33123   0.95120   0.68466  -0.46500
O          O       0.30565   0.96325   0.53382  -0.49922
O          O       0.94214   0.64180   0.84138  -0.48163
O          O       0.08304   0.66539   0.92853  -0.46726
O          O       0.07225   0.52670   0.87728  -0.47883
O          O       0.24950   0.60722   0.91751  -0.50459
O          O       0.29842   0.52257   0.03350  -0.46741
O          O       0.04857   0.61782   0.01438  -0.49370
O          O       0.79227   0.46850   0.86753  -0.48494
O          O       0.96640   0.54885   0.81538  -0.46297
O          O       0.80218   0.53721   0.96621  -0.49874
O          O       0.78348   0.65660   0.64134  -0.48302
O          O       0.01065   0.57030   0.66601  -0.46611
O          O       0.95141   0.62258   0.52673  -0.48001
O          O       0.16644   0.58061   0.60939  -0.50399
O          O       0.33025   0.46613   0.52374  -0.46730
O          O       0.06114   0.48435   0.61806  -0.49521
O          O       0.66071   0.63298   0.46831  -0.48591
O          O       0.78485   0.68395   0.54794  -0.46313
O          O       0.76810   0.53372   0.53718  -0.49836
O          O       0.08272   0.84171   0.85801  -0.48310
O          O       0.24731   0.92872   0.83460  -0.46552
O          O       0.09891   0.87714   0.97334  -0.47940
O          O       0.35610   0.91742   0.89298  -0.50501
O          O       0.32117   0.03373   0.97674  -0.46727
O          O       0.16615   0.01447   0.88195  -0.49341
O          O       0.76164   0.86726   0.03166  -0.48321
O          O       0.01546   0.81548   0.95117  -0.46251
O          O       0.83921   0.96622   0.96316  -0.49888

