data_crystal

_audit_creation_method 'AiiDA-DDEC plugin'

_cell_length_a        19.63030
_cell_length_b        23.87377
_cell_length_c        38.33608

_cell_angle_alpha     80.80297
_cell_angle_beta     75.11608
_cell_angle_gamma     65.84152

_symmetry_space_group_name_Hall 'P 1'
_symmetry_space_group_name_H-M  'P 1'

loop_
_symmetry_equiv_pos_as_xyz
 'x,y,z'

loop_
_atom_site_label
_atom_site_type_symbol
_atom_site_fract_x
_atom_site_fract_y
_atom_site_fract_z
_atom_site_charge
Zn         Zn      0.81821   0.84151   0.85788   0.68743
Zn         Zn      0.72115   0.75516   0.84098   0.45982
Zn         Zn      0.52080   0.83926   0.86508   0.68205
Zn         Zn      0.77122   0.72446   0.74715   0.68434
Zn         Zn      0.77463   0.60809   0.89168   0.68435
Zn         Zn      0.48261   0.34215   0.35703   0.68735
Zn         Zn      0.68333   0.25502   0.34087   0.45937
Zn         Zn      0.77529   0.33956   0.36474   0.68178
Zn         Zn      0.75774   0.22412   0.24703   0.68366
Zn         Zn      0.72401   0.10781   0.39154   0.68614
Zn         Zn      0.51738   0.65784   0.64296   0.68739
Zn         Zn      0.31667   0.74497   0.65913   0.45939
Zn         Zn      0.22471   0.66044   0.63526   0.68153
Zn         Zn      0.24226   0.77587   0.75296   0.68397
Zn         Zn      0.27599   0.89219   0.60846   0.68629
Zn         Zn      0.18178   0.15849   0.14211   0.68714
Zn         Zn      0.27884   0.24484   0.15902   0.45969
Zn         Zn      0.47919   0.16074   0.13492   0.68228
Zn         Zn      0.22877   0.27554   0.25284   0.68435
Zn         Zn      0.22537   0.39191   0.10832   0.68440
H          H       0.73425   0.22666   0.13719   0.11492
H          H       0.41349   0.87917   0.80146   0.13541
H          H       0.94568   0.43722   0.93471   0.11760
H          H       0.92306   0.97805   0.84834   0.12315
H          H       0.74607   0.41096   0.92807   0.11972
H          H       0.00531   0.78837   0.64871   0.13369
H          H       0.01104   0.85944   0.65263   0.13717
H          H       0.08124   0.78975   0.66504   0.12391
H          H       0.00915   0.32424   0.95063   0.12973
H          H       0.45471   0.98805   0.89329   0.13193
H          H       0.44546   0.10600   0.93841   0.13474
H          H       0.44951   0.13790   0.89355   0.12868
H          H       0.39658   0.09051   0.91041   0.13608
H          H       0.80741   0.29929   0.94416   0.11830
H          H       0.32483   0.74066   0.96825   0.13032
H          H       0.34437   0.66216   0.96424   0.13622
H          H       0.35682   0.68433   0.00316   0.12882
H          H       0.71549   0.99078   0.88006   0.12611
H          H       0.17113   0.10100   0.90373   0.11962
H          H       0.86494   0.11391   0.98216   0.08133
H          H       0.95357   0.04946   0.98159   0.08057
H          H       0.91005   0.76597   0.69319   0.13482
H          H       0.97319   0.13444   0.13747   0.11170
H          H       0.85728   0.02239   0.97812   0.11505
H          H       0.00211   0.11852   0.07210   0.10892
H          H       0.85990   0.21781   0.97618   0.08442
H          H       0.90785   0.20160   0.93013   0.08511
H          H       0.07637   0.14292   0.95136   0.08279
H          H       0.04232   0.12211   0.91836   0.08848
H          H       0.41526   0.77396   0.92700   0.13555
H          H       0.62742   0.57105   0.94824   0.14116
H          H       0.05300   0.88764   0.74276   0.13818
H          H       0.09848   0.84234   0.70470   0.12643
H          H       0.02506   0.91509   0.70055   0.13531
H          H       0.95774   0.05743   0.86705   0.12662
H          H       0.62741   0.77130   0.69950   0.13580
H          H       0.95489   0.86824   0.78586   0.14396
H          H       0.76232   0.21271   0.07098   0.11616
H          H       0.82385   0.94389   0.95889   0.12346
H          H       0.87222   0.37804   0.82456   0.13686
H          H       0.84025   0.37923   0.78493   0.13153
H          H       0.93630   0.36778   0.78167   0.13008
H          H       0.87258   0.48213   0.69752   0.13995
H          H       0.93239   0.41644   0.72004   0.13032
H          H       0.83474   0.43050   0.72591   0.13234
H          H       0.53873   0.53416   0.98696   0.13634
H          H       0.46054   0.59020   0.01380   0.13111
H          H       0.44650   0.56370   0.97681   0.13123
H          H       0.56396   0.13995   0.88873   0.12925
H          H       0.58206   0.10535   0.93142   0.13570
H          H       0.65950   0.09511   0.89347   0.13762
H          H       0.54010   0.79864   0.66153   0.13276
H          H       0.44429   0.80911   0.68272   0.12897
H          H       0.46842   0.87367   0.66782   0.13702
H          H       0.32432   0.90735   0.76395   0.13941
H          H       0.35970   0.92186   0.71723   0.13640
H          H       0.34696   0.85243   0.73224   0.12217
H          H       0.01220   0.60144  -0.00061   0.12868
H          H       0.99638   0.54421   0.98178   0.12902
H          H       0.07740   0.56278   0.96161   0.13554
H          H       0.94962   0.77553   0.91060   0.13174
H          H       0.90750   0.57724   0.94364   0.14056
H          H       0.30006   0.03855   0.86912   0.11789
H          H       0.15276   0.93544   0.96117   0.11408
H          H       0.28480   0.87430   0.92820   0.10812
H          H       0.05368   0.73654   0.93953   0.13032
H          H       0.02755   0.70116   0.98247   0.12584
H          H       0.09846   0.65592   0.94842   0.13551
H          H       0.83436   0.57681   0.72189   0.13442
H          H       0.83613   0.47387   0.84731   0.12884
H          H       0.00293   0.09032   0.01978   0.08014
H          H       0.99740   0.16785   0.01220   0.08878
H          H       0.90226   0.72756   0.63712   0.11391
H          H       0.90728   0.37905   0.30084   0.13481
H          H       0.68166   0.93484   0.43425   0.12143
H          H       0.25116   0.47822   0.34780   0.12131
H          H       0.91251   0.91207   0.42802   0.11968
H          H       0.55772   0.28750   0.14859   0.13320
H          H       0.47695   0.35835   0.15261   0.13779
H          H       0.46432   0.28850   0.16541   0.12373
H          H       0.71697   0.82160   0.45010   0.13025
H          H       0.66495   0.48812   0.39295   0.13101
H          H       0.51218   0.60526   0.43850   0.13542
H          H       0.52076   0.63764   0.39365   0.12888
H          H       0.60427   0.58995   0.41018   0.13508
H          H       0.94872   0.79996   0.44367   0.11857
H          H       0.96652   0.23963   0.46814   0.12974
H          H       0.02874   0.16105   0.46415   0.13525
H          H       0.95492   0.18342   0.50297   0.12948
H          H       0.41482   0.49029   0.37993   0.12745
H          H       0.82566   0.60091   0.40387   0.11845
H          H       0.04067   0.61417   0.48171   0.08111
H          H       0.01708   0.54948   0.48138   0.08149
H          H       0.63148   0.26568   0.19286   0.13392
H          H       0.75497   0.63526   0.63743   0.11099
H          H       0.14335   0.52229   0.47763   0.11503
H          H       0.80753   0.61914   0.57211   0.10858
H          H       0.94691   0.71829   0.47606   0.08416
H          H       0.96173   0.70182   0.43005   0.08532
H          H       0.83068   0.64231   0.45185   0.08379
H          H       0.91777   0.62245   0.41837   0.08824
H          H       0.88451   0.27328   0.42682   0.13542
H          H       0.85136   0.07105   0.44780   0.14318
H          H       0.31781   0.38648   0.24322   0.13927
H          H       0.35505   0.34091   0.20529   0.12719
H          H       0.35973   0.41394   0.20067   0.13609
H          H       0.11863   0.55774   0.36673   0.12685
H          H       0.90190   0.27122   0.19917   0.13672
H          H       0.39234   0.36815   0.28572   0.14429
H          H       0.95486   0.71321   0.57097   0.11727
H          H       0.27392   0.44350   0.45823   0.12176
H          H       0.92496   0.87786   0.32474   0.13766
H          H       0.99525   0.87922   0.28501   0.13045
H          H       0.91421   0.86705   0.28193   0.13134
H          H       0.94819   0.98136   0.19754   0.13979
H          H       0.93118   0.91572   0.22013   0.13083
H          H       0.00870   0.92995   0.22608   0.13235
H          H       0.93832   0.03365   0.48643   0.13678
H          H       0.93393   0.08942   0.51345   0.13062
H          H       0.01151   0.06296   0.47652   0.13084
H          H       0.40922   0.63947   0.38848   0.12841
H          H       0.38313   0.60529   0.43139   0.13571
H          H       0.35312   0.59481   0.39377   0.13815
H          H      -0.00113   0.29944   0.16076   0.13264
H          H       0.06347   0.31006   0.18153   0.12889
H          H       0.98936   0.37446   0.16707   0.13609
H          H       0.00484   0.40810   0.26299   0.13962
H          H       0.00071   0.42288   0.21642   0.13596
H          H       0.06847   0.35362   0.23101   0.12256
H          H       0.38580   0.10234   0.49950   0.12938
H          H       0.47587   0.04473   0.48175   0.12976
H          H       0.39615   0.06371   0.46184   0.13572
H          H       0.36407   0.27584   0.41019   0.13160
H          H       0.57030   0.07771   0.44348   0.13868
H          H       0.79328   0.53871   0.36928   0.11820
H          H       0.95114   0.43503   0.46118   0.11431
H          H       0.91316   0.37416   0.42807   0.10717
H          H       0.26975   0.23718   0.43942   0.13038
H          H       0.28798   0.20191   0.48238   0.12613
H          H       0.29605   0.15662   0.44838   0.13593
H          H       0.86697   0.07616   0.22176   0.13487
H          H       0.84138   0.97342   0.34725   0.12785
H          H       0.88916   0.58976   0.51979   0.07991
H          H       0.82452   0.66700   0.51216   0.08833
H          H       0.09773   0.27244   0.36288   0.11468
H          H       0.09272   0.62094   0.69916   0.13528
H          H       0.31833   0.06516   0.56574   0.12114
H          H       0.74883   0.52178   0.65219   0.12110
H          H       0.08748   0.08793   0.57197   0.12011
H          H       0.44227   0.71249   0.85141   0.13318
H          H       0.52304   0.64165   0.84739   0.13775
H          H       0.53567   0.71150   0.83459   0.12322
H          H       0.28302   0.17839   0.54990   0.12984
H          H       0.33505   0.51188   0.60705   0.13147
H          H       0.48781   0.39473   0.56149   0.13567
H          H       0.47923   0.36236   0.60634   0.12872
H          H       0.39572   0.41005   0.58981   0.13566
H          H       0.05127   0.20003   0.55633   0.11886
H          H       0.03347   0.76037   0.53186   0.12998
H          H       0.97126   0.83894   0.53585   0.13549
H          H       0.04508   0.81658   0.49702   0.12975
H          H       0.58518   0.50971   0.62006   0.12706
H          H       0.17433   0.39909   0.59613   0.11858
H          H       0.95932   0.38583   0.51829   0.08178
H          H       0.98291   0.45052   0.51862   0.08118
H          H       0.36852   0.73432   0.80714   0.13387
H          H       0.24503   0.36473   0.36257   0.11076
H          H       0.85664   0.47771   0.52236   0.11530
H          H       0.19246   0.38085   0.42789   0.10798
H          H       0.05309   0.28170   0.52394   0.08475
H          H       0.03826   0.29818   0.56995   0.08525
H          H       0.16932   0.35768   0.54814   0.08345
H          H       0.08222   0.37755   0.58162   0.08810
H          H       0.11549   0.72672   0.57318   0.13557
H          H       0.14864   0.92894   0.55220   0.14287
H          H       0.68218   0.61352   0.75678   0.13952
H          H       0.64495   0.65909   0.79471   0.12670
H          H       0.64027   0.58605   0.79932   0.13623
H          H       0.88136   0.44225   0.63327   0.12648
H          H       0.09810   0.72877   0.80083   0.13626
H          H       0.60765   0.63184   0.71427   0.14431
H          H       0.04513   0.28679   0.42902   0.11754
H          H       0.72607   0.55649   0.54177   0.12215
H          H       0.07504   0.12213   0.67526   0.13785
H          H       0.00474   0.12078   0.71499   0.13076
H          H       0.08578   0.13294   0.71807   0.13066
H          H       0.05180   0.01864   0.80246   0.13959
H          H       0.06881   0.08427   0.77986   0.13017
H          H       0.99129   0.07004   0.77392   0.13270
H          H       0.06167   0.96635   0.51356   0.13628
H          H       0.06606   0.91058   0.48654   0.13094
H          H       0.98848   0.93704   0.52347   0.13110
H          H       0.59077   0.36053   0.61151   0.12853
H          H       0.61686   0.39471   0.56861   0.13615
H          H       0.64687   0.40519   0.60623   0.13763
H          H       0.00113   0.70056   0.83923   0.13196
H          H       0.93652   0.68993   0.81846   0.12934
H          H       0.01063   0.62554   0.83292   0.13608
H          H       0.99515   0.59190   0.73701   0.14024
H          H      -0.00071   0.57712   0.78358   0.13591
H          H       0.93152   0.64638   0.76898   0.12265
H          H       0.61419   0.89766   0.50050   0.12965
H          H       0.52412   0.95527   0.51825   0.13004
H          H       0.60385   0.93628   0.53816   0.13521
H          H       0.63592   0.72415   0.58981   0.13151
H          H       0.42970   0.92228   0.55651   0.13881
H          H       0.20671   0.46129   0.63072   0.11780
H          H       0.04885   0.56497   0.53882   0.11468
H          H       0.08683   0.62583   0.57193   0.10688
H          H       0.73025   0.76282   0.56058   0.13009
H          H       0.71201   0.79809   0.51761   0.12639
H          H       0.70394   0.84337   0.55161   0.13527
H          H       0.13302   0.92384   0.77823   0.13461
H          H       0.15862   0.02657   0.65274   0.12790
H          H       0.11083   0.41023   0.48021   0.07979
H          H       0.17548   0.33299   0.48783   0.08807
H          H       0.26575   0.77334   0.86281   0.11491
H          H       0.58650   0.12083   0.19854   0.13545
H          H       0.05432   0.56278   0.06528   0.11819
H          H       0.07693   0.02195   0.15165   0.12271
H          H       0.25392   0.58904   0.07192   0.11929
H          H       0.99468   0.21163   0.35129   0.13300
H          H       0.98895   0.14056   0.34736   0.13728
H          H       0.91875   0.21025   0.33496   0.12435
H          H       0.99084   0.67576   0.04937   0.13004
H          H       0.54528   0.01195   0.10671   0.13168
H          H       0.55454   0.89400   0.06159   0.13515
H          H       0.55049   0.86210   0.10645   0.12869
H          H       0.60341   0.90949   0.08959   0.13549
H          H       0.19259   0.70070   0.05584   0.11997
H          H       0.67517   0.25934   0.03175   0.13025
H          H       0.65562   0.33784   0.03576   0.13556
H          H       0.64317   0.31566   0.99683   0.12924
H          H       0.28450   0.00921   0.11994   0.12638
H          H       0.82886   0.89899   0.09626   0.11972
H          H       0.13505   0.88609   0.01784   0.08121
H          H       0.04643   0.95054   0.01841   0.08073
H          H       0.08994   0.23402   0.30680   0.13439
H          H       0.02680   0.86556   0.86253   0.11211
H          H       0.14272   0.97760   0.02187   0.11528
H          H       0.99789   0.88147   0.92790   0.10903
H          H       0.14010   0.78218   0.02382   0.08149
H          H       0.09214   0.79839   0.06986   0.08481
H          H       0.92362   0.85708   0.04864   0.08337
H          H       0.95768   0.87789   0.08164   0.08801
H          H       0.58473   0.22604   0.07299   0.13548
H          H       0.37257   0.42895   0.05176   0.14127
H          H       0.94699   0.11236   0.25724   0.14064
H          H       0.90151   0.15766   0.29530   0.12630
H          H       0.97493   0.08491   0.29945   0.13500
H          H       0.04225   0.94256   0.13295   0.12685
H          H       0.37258   0.22870   0.30050   0.13565
H          H       0.04511   0.13176   0.21414   0.14459
H          H       0.23767   0.78729   0.92902   0.11567
H          H       0.17615   0.05611   0.04111   0.12332
H          H       0.12777   0.62196   0.17543   0.13717
H          H       0.15974   0.62077   0.21506   0.13077
H          H       0.06369   0.63221   0.21833   0.13018
H          H       0.12741   0.51786   0.30247   0.13980
H          H       0.06760   0.58356   0.27996   0.13053
H          H       0.16526   0.56949   0.27408   0.13176
H          H       0.46127   0.46584   0.01304   0.13653
H          H       0.53945   0.40979   0.98620   0.13143
H          H       0.55350   0.43629   0.02319   0.13068
H          H       0.43603   0.86004   0.11126   0.12906
H          H       0.41793   0.89464   0.06857   0.13601
H          H       0.34049   0.90489   0.10653   0.13792
H          H       0.45989   0.20135   0.33847   0.13273
H          H       0.55570   0.19089   0.31728   0.12861
H          H       0.53157   0.12633   0.33218   0.13704
H          H       0.67568   0.09264   0.23605   0.13962
H          H       0.64029   0.07814   0.28277   0.13636
H          H       0.65303   0.14756   0.26776   0.12168
H          H       0.98779   0.39855   0.00061   0.12918
H          H       0.00361   0.45579   0.01821   0.12862
H          H       0.92259   0.43721   0.03839   0.13574
H          H       0.05037   0.22447   0.08940   0.13212
H          H       0.09249   0.42275   0.05636   0.14018
H          H       0.69993   0.96144   0.13088   0.11803
H          H       0.84724   0.06456   0.03883   0.11394
H          H       0.71519   0.12570   0.07179   0.10797
H          H       0.94631   0.26345   0.06046   0.13048
H          H       0.97244   0.29884   0.01753   0.12619
H          H       0.90153   0.34408   0.05158   0.13553
H          H       0.16563   0.42319   0.27810   0.13416
H          H       0.16386   0.52613   0.15269   0.12903
H          H       0.99707   0.90967   0.98022   0.08011
H          H       0.00260   0.83214   0.98780   0.08940
C          C       0.79253   0.20320   0.12262  -0.07273
C          C       0.45910   0.85601   0.77932  -0.22170
C          C       0.91592   0.40660   0.93714  -0.07578
C          C       0.30114   0.95288   0.89702  -0.06855
C          C       0.90900   0.98831   0.87658  -0.07926
C          C       0.80342   0.39167   0.93338  -0.07402
C          C       0.01979   0.81314   0.66556  -0.41506
C          C       0.95126   0.34415   0.94600  -0.21987
C          C       0.44501   0.68354   0.95525   0.10501
C          C       0.51072   0.98845   0.89120  -0.22037
C          C       0.44890   0.09647   0.91071  -0.41207
C          C       0.83809   0.32889   0.94240  -0.24102
C          C       0.65048   0.93731   0.87678   0.12462
C          C       0.36361   0.69329   0.97368  -0.41390
C          C       0.65920   0.99002   0.88338  -0.22192
C          C       0.19530   0.05149   0.90904  -0.24127
C          C       0.91057   0.04433   0.92343   0.26005
C          C       0.15488   0.02192   0.93538   0.26051
C          C       0.53657   0.71863   0.91483   0.12742
C          C       0.92548   0.09473   0.96844  -0.03199
C          C       0.91951   0.78891   0.71274  -0.22818
C          C       0.92724   0.15126   0.12276  -0.07072
C          C       0.96459   0.13780   0.97070   0.05532
C          C       0.87175   0.95575   0.90261  -0.06814
C          C       0.57737   0.93658   0.88040   0.13298
C          C       0.87258   0.01283   0.94974  -0.23991
C          C       0.94344   0.14271   0.08589  -0.23400
C          C       0.91580   0.20246   0.95738  -0.03692
C          C       0.91267   0.30492   0.94845   0.25924
C          C       0.04546   0.11616   0.94698  -0.02953
C          C       0.46015   0.73001   0.93211  -0.22522
C          C       0.97312   0.81560   0.70361   0.11297
C          C       0.88339   0.16489   0.06753   0.25576
C          C       0.58135   0.61503   0.94451  -0.22524
C          C       0.88935   0.82098   0.77456   0.12675
C          C       0.04337   0.87410   0.71906  -0.42272
C          C       0.92836   0.03221   0.88679  -0.21373
C          C       0.58128   0.79576   0.72108  -0.22132
C          C       0.87723   0.79220   0.74852   0.12842
C          C       0.94417   0.84751   0.76559  -0.21965
C          C       0.83633   0.19005   0.18085   0.54533
C          C       0.80782   0.19531   0.08593  -0.21134
C          C       0.85347   0.96888   0.93904  -0.07200
C          C       0.85208   0.18141   0.14151  -0.06989
C          C       0.53477   0.82558   0.78389   0.12850
C          C       0.59503   0.79631   0.75521   0.13108
C          C       0.87726   0.39319   0.79579  -0.41382
C          C       0.87496   0.45316   0.72282  -0.41542
C          C       0.98526   0.84521   0.73007   0.12192
C          C       0.85611   0.49098   0.75451   0.10998
C          C       0.85654   0.46172   0.79040   0.10926
C          C       0.84169   0.43114   0.93041  -0.07269
C          C       0.50581   0.62578   0.96132   0.10766
C          C       0.48713   0.57587   0.98598  -0.41756
C          C       0.51897   0.04033   0.89832   0.10929
C          C       0.59352   0.04128   0.89421   0.11122
C          C       0.60032   0.09838   0.90224  -0.41542
C          C       0.44520   0.85579   0.74564   0.11653
C          C       0.50656   0.82558   0.71644   0.11923
C          C       0.48918   0.82659   0.68029  -0.41561
C          C       0.36488   0.88620   0.73958  -0.41479
C          C       0.81818   0.55964   0.81415   0.12415
C          C       0.81803   0.58811   0.77891   0.13198
C          C       0.01626   0.58212   0.97440  -0.41342
C          C       0.94101   0.73262   0.91775  -0.21721
C          C       0.98347   0.68655   0.93969   0.11123
C          C       0.97054   0.63033   0.94966   0.10735
C          C       0.91710   0.61979   0.93671  -0.23184
C          C       0.26781   0.01663   0.88982  -0.06843
C          C       0.18643   0.95777   0.94183  -0.21326
C          C       0.25930   0.92389   0.92311  -0.07184
C          C       0.80489   0.49700   0.91836   0.54057
C          C       0.04374   0.69567   0.95315  -0.41237
C          C       0.38080   0.91774   0.87815   0.54234
C          C       0.83726   0.55398   0.74869  -0.22149
C          C       0.83763   0.49577   0.82015  -0.22283
C          C       0.96956   0.13716   0.01009  -0.03544
C          C       0.59644   0.66227   0.92109   0.12915
C          C       0.87555   0.66606   0.91378   0.12942
C          C       0.88659   0.72197   0.90500   0.12645
C          C       0.85212   0.90722   0.89263   0.53778
C          C       0.88193   0.70412   0.62256  -0.07097
C          C       0.90660   0.35592   0.27877  -0.22213
C          C       0.73966   0.90492   0.43672  -0.07853
C          C       0.84977   0.45290   0.39697  -0.07027
C          C       0.22672   0.48835   0.37605  -0.07662
C          C       0.87001   0.89181   0.43322  -0.07376
C          C       0.50185   0.31218   0.16559  -0.41561
C          C       0.75885   0.84232   0.44556  -0.21959
C          C       0.91583   0.18289   0.45495   0.10567
C          C       0.61063   0.48829   0.39103  -0.21984
C          C       0.54553   0.59608   0.41070  -0.41293
C          C       0.89012   0.82890   0.44203  -0.24148
C          C       0.53625   0.43712   0.37660   0.12581
C          C       0.96908   0.19235   0.47350  -0.41426
C          C       0.46841   0.48974   0.38328  -0.22129
C          C       0.84551   0.55138   0.40914  -0.23812
C          C       0.12279   0.54441   0.42302   0.26043
C          C       0.88900   0.52168   0.43545   0.25963
C          C       0.82985   0.21836   0.41449   0.12670
C          C       0.01292   0.59478   0.46818  -0.03271
C          C       0.57964   0.28862   0.21244  -0.22670
C          C       0.79886   0.65215   0.62269  -0.06906
C          C       0.92861   0.63758   0.47063   0.05593
C          C       0.27039   0.45573   0.40204  -0.06900
C          C       0.60643   0.43644   0.38022   0.13044
C          C       0.16580   0.51271   0.44926  -0.24036
C          C       0.82824   0.64348   0.58582  -0.23370
C          C       0.92565   0.70238   0.45730  -0.03765
C          C       0.83422   0.80400   0.44814   0.25745
C          C       0.89273   0.61593   0.44709  -0.03074
C          C       0.87784   0.22948   0.43179  -0.22661
C          C       0.50842   0.31501   0.20348   0.11366
C          C       0.88484   0.66546   0.56748   0.25882
C          C       0.85793   0.11480   0.44418  -0.22682
C          C       0.51623   0.32094   0.27420   0.12757
C          C       0.36423   0.37302   0.21933  -0.42483
C          C       0.15351   0.53234   0.38636  -0.21376
C          C       0.90221   0.29566   0.22071  -0.22022
C          C       0.58304   0.29207   0.24816   0.12723
C          C       0.44388   0.34729   0.26540  -0.21965
C          C       0.79331   0.69036   0.68087   0.54998
C          C       0.91146   0.69604   0.58588  -0.21531
C          C       0.23923   0.46866   0.43847  -0.06836
C          C       0.82517   0.68228   0.64146  -0.07176
C          C       0.85688   0.32523   0.28356   0.13146
C          C       0.85426   0.29592   0.25497   0.12737
C          C       0.93350   0.89283   0.29593  -0.41429
C          C       0.94909   0.95255   0.22289  -0.41579
C          C       0.44037   0.34460   0.23001   0.12211
C          C       0.89820   0.99047   0.25451   0.11073
C          C       0.89091   0.96127   0.29042   0.10758
C          C       0.79519   0.93046   0.43027  -0.07287
C          C       0.90608   0.12528   0.46099   0.10786
C          C       0.94955   0.07523   0.48561  -0.41806
C          C       0.54355   0.54008   0.39824   0.11071
C          C       0.47217   0.54095   0.39418   0.10930
C          C       0.40058   0.59807   0.40224  -0.41454
C          C       0.95382   0.35610   0.24494   0.11903
C          C       0.95153   0.32589   0.21582   0.11585
C          C       0.00341   0.32732   0.17948  -0.41484
C          C       0.00946   0.38702   0.23864  -0.41607
C          C       0.80750   0.05921   0.31403   0.12586
C          C       0.81461   0.08762   0.27877   0.12719
C          C       0.42570   0.08283   0.47447  -0.41460
C          C       0.40820   0.23304   0.41748  -0.21765
C          C       0.38952   0.18708   0.43955   0.11141
C          C       0.44836   0.13087   0.44959   0.10818
C          C       0.52527   0.12029   0.43659  -0.23118
C          C       0.82689   0.51666   0.38985  -0.06949
C          C       0.91477   0.45752   0.44181  -0.21552
C          C       0.89445   0.42377   0.42298  -0.06765
C          C       0.77795   0.99646   0.41848   0.54073
C          C       0.30664   0.19631   0.45307  -0.41265
C          C       0.82361   0.41793   0.37820   0.54233
C          C       0.85990   0.05342   0.24860  -0.22150
C          C       0.84569   0.99536   0.32011  -0.22176
C          C       0.88512   0.63672   0.51009  -0.03325
C          C       0.81955   0.16209   0.42076   0.13131
C          C       0.54376   0.16650   0.41356   0.12718
C          C       0.48599   0.22239   0.40468   0.12737
C          C       0.34887   0.40809   0.39188   0.53460
C          C       0.11807   0.29588   0.37743  -0.07125
C          C       0.09339   0.64407   0.72122  -0.22180
C          C       0.26033   0.09508   0.56328  -0.07849
C          C       0.15022   0.54710   0.60303  -0.07074
C          C       0.77327   0.51164   0.62394  -0.07689
C          C       0.12998   0.10819   0.56678  -0.07341
C          C       0.49814   0.68781   0.83441  -0.41543
C          C       0.24114   0.15768   0.55444  -0.21987
C          C       0.08416   0.81711   0.54505   0.10551
C          C       0.38936   0.51170   0.60897  -0.21975
C          C       0.45446   0.40392   0.58930  -0.41301
C          C       0.10987   0.17110   0.55797  -0.24149
C          C       0.46374   0.56288   0.62340   0.12623
C          C       0.03091   0.80765   0.52650  -0.41429
C          C       0.53159   0.51026   0.61671  -0.22199
C          C       0.15449   0.44861   0.59086  -0.23825
C          C       0.87720   0.45559   0.57698   0.26058
C          C       0.11099   0.47832   0.56455   0.25945
C          C       0.17014   0.78163   0.58551   0.12706
C          C       0.98707   0.40521   0.53182  -0.03227
C          C       0.42035   0.71138   0.78756  -0.22631
C          C       0.20113   0.34784   0.37731  -0.06953
C          C       0.07139   0.36242   0.52937   0.05578
C          C       0.72961   0.54427   0.59796  -0.06884
C          C       0.39356   0.56356   0.61977   0.13085
C          C       0.83419   0.48729   0.55074  -0.24024
C          C       0.17175   0.35652   0.41417  -0.23371
C          C       0.07434   0.29762   0.54270  -0.03742
C          C       0.16578   0.19600   0.55185   0.25766
C          C       0.10727   0.38407   0.55291  -0.03086
C          C       0.12215   0.77052   0.56821  -0.22622
C          C       0.49158   0.68498   0.79651   0.11349
C          C       0.11515   0.33453   0.43252   0.25870
C          C       0.14206   0.88520   0.55581  -0.22732
C          C       0.48376   0.67905   0.72580   0.12484
C          C       0.63576   0.62697   0.78067  -0.42547
C          C       0.84648   0.46766   0.61363  -0.21391
C          C       0.09778   0.70433   0.77928  -0.22043
C          C       0.41695   0.70793   0.75184   0.12761
C          C       0.55612   0.65270   0.73459  -0.21887
C          C       0.20668   0.30964   0.31913   0.54947
C          C       0.08853   0.30396   0.41412  -0.21502
C          C       0.76076   0.53133   0.56153  -0.06813
C          C       0.17483   0.31771   0.35854  -0.07122
C          C       0.14311   0.67476   0.71643   0.13143
C          C       0.14573   0.70408   0.74502   0.12721
C          C       0.06649   0.10716   0.70407  -0.41417
C          C       0.05090   0.04745   0.77710  -0.41563
C          C       0.55963   0.65539   0.76999   0.12252
C          C       0.10179   0.00953   0.74549   0.11046
C          C       0.10909   0.03872   0.70958   0.10775
C          C       0.20480   0.06954   0.56972  -0.07310
C          C       0.09392   0.87471   0.53901   0.10827
C          C       0.05045   0.92477   0.51439  -0.41784
C          C       0.45644   0.45992   0.60175   0.11063
C          C       0.52783   0.45904   0.60582   0.10965
C          C       0.59942   0.40192   0.59775  -0.41474
C          C       0.04617   0.64390   0.75506   0.11923
C          C       0.04847   0.67411   0.78418   0.11570
C          C       0.99659   0.67268   0.82052  -0.41464
C          C       0.99053   0.61297   0.76135  -0.41626
C          C       0.19249   0.94079   0.68596   0.12600
C          C       0.18538   0.91237   0.72123   0.12686
C          C       0.57429   0.91716   0.52553  -0.41495
C          C       0.59179   0.76696   0.58252  -0.21879
C          C       0.61047   0.81292   0.56044   0.11135
C          C       0.55163   0.86913   0.55040   0.10852
C          C       0.47472   0.87970   0.56341  -0.23126
C          C       0.17310   0.48333   0.61014  -0.06939
C          C       0.08522   0.54248   0.55819  -0.21543
C          C       0.10554   0.57623   0.57702  -0.06727
C          C       0.22205   0.00354   0.58152   0.54070
C          C       0.69335   0.80368   0.54693  -0.41243
C          C       0.17638   0.58207   0.62180   0.54266
C          C       0.14010   0.94657   0.75140  -0.22131
C          C       0.15430   0.00464   0.67989  -0.22166
C          C       0.11487   0.36328   0.48991  -0.03351
C          C       0.18044   0.83791   0.57924   0.13143
C          C       0.45623   0.83350   0.58644   0.12639
C          C       0.51401   0.77761   0.59532   0.13002
C          C       0.65112   0.59191   0.60812   0.53450
C          C       0.20747   0.79680   0.87737  -0.07308
C          C       0.54089   0.14399   0.22068  -0.22148
C          C       0.08408   0.59340   0.06286  -0.07590
C          C       0.69886   0.04712   0.10297  -0.06862
C          C       0.09099   0.01169   0.12342  -0.07931
C          C       0.19657   0.60833   0.06661  -0.07402
C          C       0.98021   0.18685   0.33444  -0.41517
C          C       0.04873   0.65584   0.05399  -0.21941
C          C       0.55499   0.31646   0.04475   0.10488
C          C       0.48927   0.01155   0.10879  -0.22068
C          C       0.55109   0.90352   0.08928  -0.41191
C          C       0.16190   0.67111   0.05760  -0.24298
C          C       0.34951   0.06268   0.12322   0.12473
C          C       0.63639   0.30671   0.02631  -0.41377
C          C       0.34080   0.00997   0.11662  -0.22176
C          C       0.80470   0.94851   0.09096  -0.24106
C          C       0.08942   0.95566   0.07657   0.25980
C          C       0.84511   0.97808   0.06462   0.26037
C          C       0.46343   0.28137   0.08516   0.12734
C          C       0.07451   0.90527   0.03156  -0.03241
C          C       0.08048   0.21109   0.28726  -0.22874
C          C       0.07275   0.84874   0.87723  -0.07042
C          C       0.03540   0.86220   0.02930   0.05596
C          C       0.12825   0.04424   0.09738  -0.06848
C          C       0.42262   0.06342   0.11960   0.13295
C          C       0.12741   0.98717   0.05025  -0.23927
C          C       0.05655   0.85728   0.91411  -0.23417
C          C       0.08419   0.79753   0.04261  -0.03604
C          C       0.08732   0.69507   0.05155   0.25893
C          C       0.95454   0.88384   0.05301  -0.02946
C          C       0.53984   0.26999   0.06789  -0.22524
C          C       0.02688   0.18439   0.29639   0.11341
C          C       0.11660   0.83511   0.93246   0.25597
C          C       0.41865   0.38497   0.05548  -0.22495
C          C       0.11064   0.17902   0.22544   0.12713
C          C       0.95663   0.12590   0.28093  -0.42417
C          C       0.07163   0.96779   0.11320  -0.21356
C          C       0.41872   0.20424   0.27891  -0.22115
C          C       0.12276   0.20780   0.25148   0.12820
C          C       0.05583   0.15248   0.23441  -0.21974
C          C       0.16366   0.80995   0.81914   0.54512
C          C       0.19217   0.80468   0.91406  -0.21136
C          C       0.14653   0.03112   0.06096  -0.07232
C          C       0.14791   0.81859   0.85848  -0.06974
C          C       0.46523   0.17442   0.21611   0.12808
C          C       0.40496   0.20368   0.24479   0.13105
C          C       0.12273   0.60681   0.20421  -0.41374
C          C       0.12503   0.54684   0.27718  -0.41556
C          C       0.01473   0.15479   0.26993   0.12179
C          C       0.14388   0.50901   0.24548   0.11011
C          C       0.14345   0.53828   0.20960   0.10914
C          C       0.15831   0.56885   0.06959  -0.07262
C          C       0.49418   0.37421   0.03868   0.10742
C          C       0.51286   0.42413   0.01402  -0.41757
C          C       0.48103   0.95966   0.10168   0.10937
C          C       0.40648   0.95871   0.10579   0.11121
C          C       0.39968   0.90162   0.09776  -0.41521
C          C       0.55479   0.14421   0.25435   0.11635
C          C       0.49343   0.17441   0.28356   0.11919
C          C       0.51081   0.17341   0.31971  -0.41573
C          C       0.63511   0.11380   0.26042  -0.41471
C          C       0.18182   0.44036   0.18585   0.12465
C          C       0.18196   0.41188   0.22108   0.12927
C          C       0.98374   0.41787   0.02560  -0.41337
C          C       0.05899   0.26738   0.08225  -0.21736
C          C       0.01652   0.31345   0.06031   0.11125
C          C       0.02946   0.36967   0.05033   0.10751
C          C       0.08289   0.38021   0.06328  -0.23212
C          C       0.73218   0.98337   0.11018  -0.06851
C          C       0.81357   0.04223   0.05816  -0.21349
C          C       0.74069   0.07611   0.07689  -0.07153
C          C       0.19510   0.50300   0.08163   0.54075
C          C       0.95625   0.30432   0.04685  -0.41220
C          C       0.61919   0.08226   0.12185   0.54206
C          C       0.16273   0.44602   0.25130  -0.22059
C          C       0.16236   0.50423   0.17984  -0.22229
C          C       0.03044   0.86284   0.98990  -0.03528
C          C       0.40356   0.33773   0.07890   0.12923
C          C       0.12445   0.33394   0.08622   0.12936
C          C       0.11341   0.27803   0.09499   0.12681
C          C       0.14787   0.09278   0.10737   0.53842
N          N       0.82151   0.77081   0.76564  -0.21158
N          N       0.80056   0.78550   0.80014  -0.02519
N          N       0.84028   0.81576   0.80627  -0.21607
N          N       0.83872   0.75664   0.88252  -0.20131
N          N       0.80092   0.72407   0.87746  -0.01932
N          N       0.82157   0.66939   0.89599  -0.21152
N          N       0.66264   0.66605   0.90026  -0.20596
N          N       0.64413   0.72113   0.88197  -0.01695
N          N       0.56894   0.75371   0.89028  -0.20741
N          N       0.56623   0.81650   0.81326  -0.20412
N          N       0.64144   0.78404   0.80343  -0.03278
N          N       0.66031   0.77155   0.76852  -0.20484
N          N       0.58880   0.87952   0.87175  -0.20407
N          N       0.66428   0.84719   0.86327  -0.01995
N          N       0.70264   0.88075   0.86616  -0.19722
N          N       0.79417   0.64976   0.78223  -0.21047
N          N       0.78049   0.65907   0.81732  -0.03526
N          N       0.79493   0.60555   0.83711  -0.20556
N          N       0.64292   0.27080   0.26526  -0.21232
N          N       0.61474   0.28565   0.29974  -0.02842
N          N       0.53877   0.31593   0.30583  -0.21277
N          N       0.52196   0.25695   0.38208  -0.20086
N          N       0.59723   0.22426   0.37707  -0.01811
N          N       0.61230   0.16966   0.39572  -0.21302
N          N       0.77045   0.16584   0.39995  -0.20874
N          N       0.75266   0.22092   0.38166  -0.01431
N          N       0.78720   0.25349   0.38992  -0.20920
N          N       0.80532   0.31605   0.31306  -0.20410
N          N       0.77228   0.28343   0.30338  -0.03154
N          N       0.80054   0.27095   0.26847  -0.20277
N          N       0.66055   0.37947   0.37141  -0.20345
N          N       0.62582   0.34718   0.36283  -0.02087
N          N       0.55113   0.38068   0.36579  -0.19558
N          N       0.77383   0.14930   0.28207  -0.21065
N          N       0.74317   0.15866   0.31717  -0.03376
N          N       0.76214   0.10516   0.33698  -0.20515
N          N       0.35707   0.72920   0.73474  -0.21230
N          N       0.38525   0.71435   0.70026  -0.02751
N          N       0.46123   0.68406   0.69416  -0.21183
N          N       0.47803   0.74305   0.61792  -0.20181
N          N       0.40276   0.77574   0.62293  -0.01755
N          N       0.38770   0.83034   0.60427  -0.21300
N          N       0.22954   0.83416   0.60004  -0.20931
N          N       0.24733   0.77908   0.61834  -0.01501
N          N       0.21280   0.74651   0.61008  -0.20895
N          N       0.19468   0.68395   0.68694  -0.20330
N          N       0.22772   0.71656   0.69662  -0.03192
N          N       0.19945   0.72905   0.73152  -0.20350
N          N       0.33944   0.62052   0.62858  -0.20251
N          N       0.37417   0.65281   0.63716  -0.02145
N          N       0.44886   0.61931   0.63421  -0.19664
N          N       0.22616   0.85070   0.71793  -0.21097
N          N       0.25682   0.84134   0.68283  -0.03319
N          N       0.23786   0.89484   0.66302  -0.20517
N          N       0.17848   0.22919   0.23436  -0.21223
N          N       0.19943   0.21450   0.19986  -0.02581
N          N       0.15971   0.18423   0.19373  -0.21500
N          N       0.16127   0.24336   0.11747  -0.20053
N          N       0.19907   0.27593   0.12253  -0.02022
N          N       0.17842   0.33061   0.10400  -0.21196
N          N       0.33735   0.33395   0.09973  -0.20580
N          N       0.35587   0.27887   0.11802  -0.01661
N          N       0.43105   0.24628   0.10971  -0.20762
N          N       0.43376   0.18350   0.18673  -0.20396
N          N       0.35855   0.21596   0.19657  -0.03190
N          N       0.33968   0.22845   0.23147  -0.20496
N          N       0.41120   0.12048   0.12825  -0.20467
N          N       0.33571   0.15281   0.13672  -0.02041
N          N       0.29735   0.11925   0.13383  -0.19653
N          N       0.20583   0.35024   0.21777  -0.21027
N          N       0.21951   0.34093   0.18268  -0.03424
N          N       0.20506   0.39445   0.16289  -0.20529
O          O       0.76430   0.21867   0.19615  -0.54370
O          O       0.88885   0.17084   0.19799  -0.54633
O          O       0.41334   0.86085   0.89053  -0.54669
O          O       0.41607   0.94214   0.85261  -0.53982
O          O       0.86883   0.89761   0.85808  -0.54673
O          O       0.82042   0.87788   0.91639  -0.54092
O          O       0.84129   0.53275   0.91659  -0.54402
O          O       0.74174   0.51679   0.90882  -0.54479
O          O       0.93229   0.08827   0.93087  -0.20691
O          O       0.89265   0.15884   0.03131  -0.21199
O          O       0.95287   0.24383   0.95669  -0.20553
O          O       0.08419   0.05189   0.95652  -0.20975
O          O       0.82132   0.71898   0.69625  -0.54615
O          O       0.74328   0.67052   0.69801  -0.54706
O          O       0.83514   0.36107   0.39059  -0.54648
O          O       0.78962   0.44244   0.35267  -0.53906
O          O       0.37559   0.39767   0.35744  -0.54553
O          O       0.38752   0.38031   0.41529  -0.53910
O          O       0.70850   0.03134   0.41495  -0.54250
O          O       0.83014   0.01706   0.41085  -0.54709
O          O       0.04996   0.58834   0.43061  -0.20736
O          O       0.91859   0.65894   0.53131  -0.21434
O          O       0.84780   0.74276   0.45660  -0.20444
O          O       0.90906   0.55154   0.45647  -0.20982
O          O       0.17867   0.28102   0.30375  -0.54505
O          O       0.25672   0.32947   0.30199  -0.54762
O          O       0.16485   0.63893   0.60941  -0.54630
O          O       0.21037   0.55756   0.64732  -0.53970
O          O       0.62440   0.60233   0.64256  -0.54632
O          O       0.61248   0.61968   0.58470  -0.53822
O          O       0.29149   0.96865   0.58505  -0.54313
O          O       0.16986   0.98294   0.58914  -0.54630
O          O       0.95003   0.41166   0.56939  -0.20801
O          O       0.08141   0.34106   0.46868  -0.21378
O          O       0.15219   0.25723   0.54339  -0.20518
O          O       0.09094   0.44846   0.54352  -0.20908
O          O       0.23569   0.78133   0.80385  -0.54418
O          O       0.11114   0.82916   0.80200  -0.54546
O          O       0.58666   0.13914   0.10946  -0.54672
O          O       0.58393   0.05786   0.14739  -0.53970
O          O       0.13116   0.10239   0.14191  -0.54718
O          O       0.17957   0.12212   0.08361  -0.54111
O          O       0.15870   0.46725   0.08340  -0.54307
O          O       0.25826   0.48321   0.09117  -0.54587
O          O       0.06770   0.91173   0.06912  -0.20667
O          O       0.10734   0.84116   0.96868  -0.21252
O          O       0.04712   0.75617   0.04331  -0.20439
O          O       0.91580   0.94811   0.04348  -0.20967

