data_crystal

_audit_creation_method 'AiiDA-DDEC plugin'

_cell_length_a        12.75755
_cell_length_b        12.75946
_cell_length_c        61.93751

_cell_angle_alpha     89.99821
_cell_angle_beta     90.01357
_cell_angle_gamma     89.93084

_symmetry_space_group_name_Hall 'P 1'
_symmetry_space_group_name_H-M  'P 1'

loop_
_symmetry_equiv_pos_as_xyz
 'x,y,z'

loop_
_atom_site_label
_atom_site_type_symbol
_atom_site_fract_x
_atom_site_fract_y
_atom_site_fract_z
_atom_site_charge
Cu         Cu      0.96890   0.95014   0.92559   0.17411
Cu         Cu      0.99723   0.94476   0.88511   0.16935
Cu         Cu      0.02983   0.05018   0.42549   0.17419
Cu         Cu      0.00223   0.05523   0.38500   0.16909
Cu         Cu      0.55276   0.46836   0.67564   0.17422
Cu         Cu      0.55547   0.49517   0.63514   0.16878
Cu         Cu      0.44738   0.53199   0.17539   0.17322
Cu         Cu      0.44462   0.50449   0.13494   0.16934
Cu         Cu      0.53183   0.44729   0.82453   0.17357
Cu         Cu      0.50448   0.44421   0.86507   0.16940
Cu         Cu      0.46849   0.55243   0.32452   0.17416
Cu         Cu      0.49592   0.55520   0.36509   0.16870
Cu         Cu      0.94972   0.96981   0.07460   0.17314
Cu         Cu      0.94414   0.99636   0.11506   0.16921
Cu         Cu      0.05016   0.03028   0.57457   0.17410
Cu         Cu      0.05558   0.00348   0.61503   0.16820
H          H       0.94381   0.48646   0.10445   0.11953
H          H       0.80219   0.62311   0.10673   0.12284
H          H       0.64115   0.62803   0.12978   0.08555
H          H       0.51395   0.37174   0.09850   0.08912
H          H       0.66895   0.35566   0.07397   0.12440
H          H       0.08860   0.35263   0.11224   0.12348
H          H       0.25025   0.37116   0.13503   0.08175
H          H       0.37355   0.59579   0.09435   0.08969
H          H       0.21966   0.58529   0.06944   0.12296
H          H       0.67529   0.59675   0.05603   0.10063
H          H       0.64251   0.56489   0.02870   0.11429
H          H       0.76250   0.63298   0.03456   0.10008
H          H       0.19147   0.31909   0.06104   0.10290
H          H       0.25319   0.34437   0.03549   0.11419
H          H       0.12624   0.28260   0.03654   0.10064
H          H       0.93843   0.44362   0.95580   0.11480
H          H       0.07167   0.17894   0.98952   0.12178
H          H       0.07874   0.02601   0.96463   0.08921
H          H       0.82835   0.13636   0.92861   0.08593
H          H       0.81401   0.29784   0.95158   0.12524
H          H       0.06777   0.57901   0.94909   0.12445
H          H       0.07438   0.74192   0.92656   0.08329
H          H       0.84315   0.88340   0.96323   0.08781
H          H       0.82917   0.72901   0.98766   0.11997
H          H       0.80435   0.28098   0.03414   0.10998
H          H       0.86705   0.15604   0.03624   0.10936
H          H       0.80871   0.19576   0.01101   0.09133
H          H       0.09727   0.62466   0.02852   0.11039
H          H       0.03396   0.74838   0.03288   0.11191
H          H       0.07965   0.71421   0.00640   0.09055
H          H       0.05418   0.51357   0.60471   0.11984
H          H       0.19694   0.37743   0.60693   0.12302
H          H       0.35909   0.36933   0.62955   0.08445
H          H       0.48557   0.62850   0.59923   0.08882
H          H       0.32981   0.64700   0.57488   0.12378
H          H       0.91036   0.64848   0.61206   0.12326
H          H       0.74919   0.62937   0.63495   0.08094
H          H       0.62711   0.40279   0.59451   0.08943
H          H       0.78113   0.41349   0.56962   0.12273
H          H       0.32295   0.40478   0.55606   0.10192
H          H       0.35837   0.44226   0.52906   0.11483
H          H       0.23695   0.37451   0.53394   0.10076
H          H       0.80731   0.67980   0.56095   0.10187
H          H       0.74716   0.65537   0.53521   0.11457
H          H       0.87418   0.71717   0.53667   0.10022
H          H       0.05966   0.55654   0.45584   0.11566
H          H       0.93000   0.82280   0.48995   0.12114
H          H       0.92240   0.97582   0.46497   0.08974
H          H       0.16906   0.86294   0.42832   0.08534
H          H       0.18339   0.70143   0.45120   0.12492
H          H       0.93418   0.42186   0.44909   0.12484
H          H       0.92650   0.25897   0.42660   0.08409
H          H       0.15644   0.11602   0.46330   0.08841
H          H       0.17156   0.27019   0.48770   0.11999
H          H       0.19581   0.71989   0.53412   0.11116
H          H       0.13259   0.84488   0.53631   0.11065
H          H       0.19114   0.80540   0.51107   0.09121
H          H       0.90700   0.37392   0.52826   0.11059
H          H       0.97124   0.25087   0.53281   0.11155
H          H       0.92681   0.28454   0.50617   0.09010
H          H       0.01272   0.44543   0.85476   0.12074
H          H       0.87714   0.30327   0.85716   0.12276
H          H       0.87104   0.14147   0.87992   0.08601
H          H       0.12865   0.01461   0.84892   0.08884
H          H       0.14520   0.17000   0.82450   0.12448
H          H       0.14841   0.58853   0.86242   0.12352
H          H       0.13142   0.75119   0.88492   0.08180
H          H       0.90488   0.87354   0.84430   0.08965
H          H       0.91568   0.71915   0.81954   0.12264
H          H       0.90360   0.17862   0.80631   0.10247
H          H       0.93901   0.14292   0.77920   0.11579
H          H       0.87200   0.26439   0.78421   0.10172
H          H       0.18149   0.69099   0.81132   0.10217
H          H       0.15721   0.75223   0.78566   0.11468
H          H       0.22033   0.62569   0.78699   0.10044
H          H       0.05869   0.44164   0.70596   0.11442
H          H       0.32406   0.56911   0.73984   0.12206
H          H       0.47672   0.57717   0.71483   0.09074
H          H       0.36424   0.33048   0.67813   0.08509
H          H       0.20280   0.31627   0.70098   0.12478
H          H       0.92303   0.56754   0.69921   0.12533
H          H       0.75991   0.57362   0.67672   0.08364
H          H       0.61974   0.34222   0.71351   0.08968
H          H       0.77402   0.32986   0.73806   0.12170
H          H       0.21875   0.30208   0.78430   0.11113
H          H       0.34457   0.36276   0.78676   0.10942
H          H       0.30580   0.30445   0.76150   0.09043
H          H       0.87603   0.59470   0.77820   0.11084
H          H       0.75354   0.53017   0.78295   0.11224
H          H       0.78599   0.57438   0.75625   0.09051
H          H       0.98798   0.55558   0.35448   0.12116
H          H       0.12449   0.69881   0.35654   0.12217
H          H       0.12942   0.86037   0.37942   0.08394
H          H       0.86939   0.98464   0.34889   0.08887
H          H       0.85386   0.82957   0.32437   0.12400
H          H       0.85267   0.41247   0.36241   0.12410
H          H       0.87087   0.25042   0.38515   0.08134
H          H       0.09465   0.12611   0.34431   0.08998
H          H       0.08422   0.28047   0.31948   0.12256
H          H       0.09336   0.82296   0.30611   0.10113
H          H       0.06017   0.85753   0.27885   0.11569
H          H       0.12885   0.73717   0.28428   0.10063
H          H       0.81738   0.30853   0.31133   0.10238
H          H       0.84149   0.24714   0.28569   0.11475
H          H       0.77852   0.37369   0.28696   0.10091
H          H       0.94163   0.55788   0.20581   0.11488
H          H       0.67482   0.43100   0.23985   0.12128
H          H       0.52173   0.42394   0.21496   0.09044
H          H       0.63553   0.66876   0.17799   0.08473
H          H       0.79699   0.68296   0.20086   0.12428
H          H       0.07771   0.43179   0.19911   0.12551
H          H       0.24083   0.42585   0.17666   0.08299
H          H       0.38044   0.65774   0.21332   0.08880
H          H       0.22650   0.66996   0.23792   0.12083
H          H       0.78085   0.69646   0.28457   0.10955
H          H       0.65424   0.63689   0.28627   0.10972
H          H       0.69653   0.69586   0.26130   0.09054
H          H       0.12339   0.40571   0.27838   0.11134
H          H       0.24626   0.47007   0.28306   0.11188
H          H       0.21365   0.42485   0.25643   0.09047
H          H       0.55602   0.98743   0.64559   0.12008
H          H       0.69808   0.12416   0.64355   0.12249
H          H       0.85958   0.13046   0.62069   0.08388
H          H       0.98581   0.87107   0.65116   0.08909
H          H       0.83076   0.85442   0.67570   0.12426
H          H       0.41237   0.85209   0.63766   0.12419
H          H       0.25050   0.87100   0.61496   0.08139
H          H       0.12802   0.09649   0.65573   0.08949
H          H       0.28273   0.08543   0.68048   0.12299
H          H       0.82259   0.09380   0.69393   0.10038
H          H       0.85787   0.06068   0.72114   0.11622
H          H       0.73712   0.12916   0.71583   0.10098
H          H       0.30934   0.81768   0.68871   0.10255
H          H       0.24736   0.84207   0.71428   0.11558
H          H       0.37404   0.77938   0.71317   0.10097
H          H       0.55784   0.94147   0.79423   0.11528
H          H       0.43111   0.67461   0.76015   0.12155
H          H       0.42373   0.52207   0.78519   0.09115
H          H       0.66973   0.63604   0.82195   0.08535
H          H       0.68291   0.79748   0.79908   0.12432
H          H       0.43136   0.07748   0.80079   0.12629
H          H       0.42528   0.24024   0.82332   0.08456
H          H       0.65789   0.37999   0.78677   0.08906
H          H       0.67084   0.22577   0.76226   0.12108
H          H       0.69685   0.78117   0.71559   0.10907
H          H       0.63660   0.65487   0.71363   0.10930
H          H       0.69547   0.69604   0.73869   0.09011
H          H       0.40547   0.12364   0.72173   0.11082
H          H       0.47009   0.24612   0.71703   0.11168
H          H       0.42514   0.21352   0.74371   0.09088
H          H       0.44423   0.01170   0.14560   0.12000
H          H       0.30115   0.87493   0.14354   0.12253
H          H       0.13948   0.86876   0.12080   0.08480
H          H       0.01499   0.12999   0.15079   0.08902
H          H       0.17001   0.14647   0.17539   0.12405
H          H       0.58673   0.14568   0.13741   0.12423
H          H       0.74878   0.12716   0.11475   0.08163
H          H       0.87323   0.90491   0.15595   0.08972
H          H       0.71887   0.91591   0.18074   0.12248
H          H       0.17579   0.90732   0.19386   0.10129
H          H       0.14279   0.93928   0.22127   0.11613
H          H       0.26281   0.87072   0.21541   0.10089
H          H       0.69153   0.18436   0.18902   0.10283
H          H       0.75317   0.15825   0.21452   0.11467
H          H       0.62687   0.22167   0.21353   0.10114
H          H       0.44176   0.05807   0.29424   0.11484
H          H       0.56957   0.32409   0.26025   0.12154
H          H       0.57707   0.47732   0.28512   0.09098
H          H       0.33100   0.36481   0.32194   0.08499
H          H       0.31661   0.20312   0.29909   0.12458
H          H       0.56646   0.92297   0.30112   0.12526
H          H       0.57307   0.75957   0.32350   0.08348
H          H       0.34298   0.61879   0.28650   0.08921
H          H       0.33084   0.77279   0.26190   0.12101
H          H       0.30346   0.21900   0.21561   0.10962
H          H       0.36348   0.34540   0.21367   0.10934
H          H       0.30480   0.30406   0.23874   0.09057
H          H       0.59378   0.87599   0.22148   0.11014
H          H       0.52947   0.75286   0.21725   0.11155
H          H       0.57516   0.78738   0.24375   0.08993
H          H       0.48541   0.94374   0.89554   0.11966
H          H       0.62142   0.80277   0.89312   0.12216
H          H       0.62923   0.64090   0.87054   0.08483
H          H       0.37176   0.51328   0.90136   0.08878
H          H       0.35530   0.66776   0.92604   0.12555
H          H       0.34997   0.08914   0.88812   0.12323
H          H       0.36858   0.25039   0.86527   0.08175
H          H       0.59774   0.37109   0.90537   0.08933
H          H       0.58748   0.21688   0.93019   0.12197
H          H       0.59552   0.67498   0.94407   0.10089
H          H       0.56190   0.64162   0.97133   0.11505
H          H       0.63137   0.76116   0.96579   0.10057
H          H       0.31970   0.19295   0.93913   0.10249
H          H       0.34550   0.25309   0.96483   0.11439
H          H       0.28275   0.12663   0.96350   0.10094
H          H       0.44363   0.94246   0.04420   0.11506
H          H       0.17559   0.06781   0.00980   0.12122
H          H       0.02254   0.07532   0.03478   0.08934
H          H       0.13815   0.83197   0.07206   0.08553
H          H       0.30015   0.81858   0.04930   0.12514
H          H       0.57916   0.06842   0.05077   0.12508
H          H       0.74245   0.07578   0.07313   0.08318
H          H       0.88193   0.84083   0.03714   0.08871
H          H       0.72765   0.82697   0.01269   0.11930
H          H       0.28084   0.80413   0.96588   0.10976
H          H       0.15572   0.86673   0.96358   0.10987
H          H       0.19465   0.80824   0.98883   0.09141
H          H       0.62664   0.09328   0.97172   0.11103
H          H       0.74935   0.02830   0.96718   0.11071
H          H       0.71612   0.07313   0.99378   0.08996
H          H       0.51273   0.05566   0.39557   0.11990
H          H       0.37821   0.19691   0.39319   0.12330
H          H       0.37164   0.35842   0.37037   0.08487
H          H       0.62853   0.48603   0.40130   0.08903
H          H       0.64572   0.33077   0.42581   0.12525
H          H       0.64727   0.91170   0.38790   0.12399
H          H       0.62932   0.74984   0.36512   0.08065
H          H       0.40374   0.62689   0.40564   0.08978
H          H       0.41440   0.78089   0.43057   0.12255
H          H       0.40727   0.32534   0.44428   0.10131
H          H       0.44105   0.35760   0.47162   0.11551
H          H       0.37179   0.23799   0.46584   0.10197
H          H       0.68054   0.80854   0.43910   0.10176
H          H       0.65522   0.74689   0.46466   0.11447
H          H       0.71686   0.87412   0.46359   0.10018
H          H       0.55653   0.05945   0.54423   0.11617
H          H       0.82341   0.93069   0.51009   0.12096
H          H       0.97608   0.92315   0.53511   0.08875
H          H       0.86349   0.17019   0.57164   0.08539
H          H       0.70092   0.18322   0.54890   0.12544
H          H       0.42070   0.93102   0.55078   0.12468
H          H       0.25721   0.92385   0.57317   0.08303
H          H       0.11808   0.15859   0.53718   0.08763
H          H       0.27186   0.17164   0.51255   0.11951
H          H       0.71985   0.19471   0.46542   0.10996
H          H       0.84564   0.13292   0.46399   0.10948
H          H       0.80284   0.19264   0.48888   0.09191
H          H       0.37525   0.90261   0.47167   0.11039
H          H       0.25224   0.96678   0.46693   0.11128
H          H       0.28460   0.92158   0.49357   0.09048
C          C       0.94493   0.45835   0.04227  -0.10261
C          C       0.84956   0.47052   0.05335   0.17150
C          C       0.84819   0.47839   0.07600  -0.04570
C          C       0.94429   0.47808   0.08697  -0.12595
C          C       0.04070   0.46757   0.07638  -0.04692
C          C       0.03966   0.45545   0.05380   0.17356
C          C       0.75054   0.48683   0.08869   0.12423
C          C       0.74106   0.56430   0.10466  -0.18241
C          C       0.65171   0.56809   0.11743   0.08469
C          C       0.57990   0.42557   0.09973   0.06853
C          C       0.66633   0.41690   0.08616  -0.18840
C          C       0.13843   0.47061   0.08920   0.12567
C          C       0.14888   0.40935   0.10794  -0.18012
C          C       0.23833   0.41871   0.12061   0.07798
C          C       0.30836   0.54313   0.09764   0.06764
C          C       0.22236   0.53720   0.08392  -0.18365
C          C       0.70700   0.57335   0.04025  -0.18030
C          C       0.17819   0.34059   0.04407  -0.18154
C          C       0.94515   0.45277   0.01834  -0.08558
C          C       0.94615   0.35604   0.00754   0.17507
C          C       0.94254   0.35177   0.98482  -0.05011
C          C       0.94048   0.44633   0.97335  -0.16125
C          C       0.94210   0.54411   0.98361  -0.04629
C          C       0.94332   0.54620   0.00635   0.17417
C          C       0.94289   0.25293   0.97247   0.12249
C          C       0.01604   0.17269   0.97630  -0.18159
C          C       0.01977   0.08694   0.96250   0.07513
C          C       0.88109   0.15018   0.94219   0.07796
C          C       0.87358   0.23907   0.95505  -0.19042
C          C       0.94695   0.63978   0.97034   0.11795
C          C       0.01600   0.64461   0.95267  -0.18588
C          C       0.01996   0.73435   0.94003   0.08170
C          C       0.89211   0.81456   0.96074   0.07864
C          C       0.88406   0.72813   0.97426  -0.18071
C          C       0.85109   0.22223   0.02548  -0.18911
C          C       0.04513   0.68393   0.02143  -0.18680
C          C       0.05575   0.54290   0.54246  -0.10301
C          C       0.15053   0.53265   0.55385   0.17181
C          C       0.15110   0.52406   0.57648  -0.04310
C          C       0.05466   0.52282   0.58725  -0.12693
C          C       0.95883   0.53294   0.57643  -0.04636
C          C       0.96046   0.54493   0.55384   0.17426
C          C       0.24853   0.51493   0.58923   0.12307
C          C       0.25816   0.43619   0.60494  -0.18234
C          C       0.34808   0.43077   0.61753   0.08670
C          C       0.41956   0.57473   0.60030   0.06778
C          C       0.33283   0.58480   0.58686  -0.18637
C          C       0.86096   0.52974   0.58917   0.12473
C          C       0.85028   0.59138   0.60785  -0.18140
C          C       0.76110   0.58157   0.62057   0.07966
C          C       0.69182   0.45610   0.59775   0.06985
C          C       0.77773   0.46215   0.58401  -0.18382
C          C       0.29308   0.43178   0.54036  -0.18333
C          C       0.82168   0.65899   0.54398  -0.17972
C          C       0.05664   0.54784   0.51848  -0.08602
C          C       0.05424   0.64446   0.50761   0.17847
C          C       0.05684   0.64865   0.48486  -0.05132
C          C       0.05908   0.55400   0.47341  -0.16065
C          C       0.05926   0.45627   0.48371  -0.04993
C          C       0.05957   0.45441   0.50646   0.17373
C          C       0.05632   0.74740   0.47247   0.12145
C          C       0.98424   0.82836   0.47648  -0.17971
C          C       0.98042   0.91418   0.46270   0.07382
C          C       0.11693   0.84960   0.44201   0.07746
C          C       0.12448   0.76062   0.45484  -0.19005
C          C       0.05398   0.36033   0.47048   0.12041
C          C       0.98529   0.35587   0.45273  -0.18665
C          C       0.98067   0.26608   0.44012   0.08221
C          C       0.10781   0.18512   0.46083   0.07848
C          C       0.11643   0.27156   0.47435  -0.18277
C          C       0.14889   0.77876   0.52554  -0.19225
C          C       0.95998   0.31508   0.52130  -0.18513
C          C       0.04456   0.44390   0.79255  -0.10647
C          C       0.03215   0.34945   0.80388   0.17535
C          C       0.02286   0.34884   0.82649  -0.04611
C          C       0.02249   0.44514   0.83731  -0.12671
C          C       0.03402   0.54086   0.82654  -0.04877
C          C       0.04690   0.53896   0.80396   0.17714
C          C       0.01380   0.25145   0.83919   0.12371
C          C       0.93590   0.24200   0.85506  -0.18117
C          C       0.93162   0.15235   0.86772   0.08366
C          C       0.07476   0.08063   0.85013   0.06639
C          C       0.08379   0.16719   0.83665  -0.18787
C          C       0.03089   0.63871   0.83930   0.12661
C          C       0.09222   0.64926   0.85802  -0.18200
C          C       0.08335   0.73914   0.87057   0.07945
C          C       0.95814   0.80869   0.84763   0.07037
C          C       0.96391   0.72237   0.83400  -0.18359
C          C       0.92959   0.20820   0.79053  -0.18672
C          C       0.16131   0.67741   0.79430  -0.18215
C          C       0.05021   0.44318   0.76856  -0.08579
C          C       0.14681   0.44452   0.75766   0.17849
C          C       0.15082   0.44225   0.73491  -0.05200
C          C       0.05613   0.44170   0.72351  -0.15934
C          C       0.95857   0.44233   0.73381  -0.04870
C          C       0.95684   0.44161   0.75654   0.17364
C          C       0.24922   0.44260   0.72242   0.12042
C          C       0.32998   0.51465   0.72642  -0.18086
C          C       0.41558   0.51872   0.71259   0.07216
C          C       0.35097   0.38245   0.69186   0.07597
C          C       0.26205   0.37489   0.70469  -0.18763
C          C       0.86264   0.44736   0.72062   0.12026
C          C       0.85760   0.51586   0.70286  -0.18716
C          C       0.76777   0.51956   0.69026   0.08250
C          C       0.68813   0.39177   0.71104   0.07811
C          C       0.77450   0.38443   0.72460  -0.18482
C          C       0.27885   0.34774   0.77582  -0.19056
C          C       0.81727   0.54145   0.77134  -0.18715
C          C       0.95516   0.55538   0.29235  -0.10526
C          C       0.96787   0.65033   0.30349   0.17278
C          C       0.97735   0.65170   0.32612  -0.04477
C          C       0.97795   0.55554   0.33703  -0.12915
C          C       0.96611   0.45941   0.32642  -0.04734
C          C       0.95246   0.46063   0.30386   0.17840
C          C       0.98640   0.74918   0.33883   0.12213
C          C       0.06484   0.75938   0.35459  -0.18126
C          C       0.06855   0.84894   0.36730   0.08522
C          C       0.92403   0.91925   0.35000   0.06760
C          C       0.91559   0.83284   0.33645  -0.18619
C          C       0.96946   0.36168   0.33923   0.12510
C          C       0.90879   0.35159   0.35805  -0.17983
C          C       0.91819   0.26205   0.37070   0.07796
C          C       0.04202   0.19146   0.34763   0.06828
C          C       0.03617   0.27769   0.33396  -0.18299
C          C       0.06963   0.79255   0.29025  -0.18449
C          C       0.83755   0.32203   0.29431  -0.18119
C          C       0.94977   0.55593   0.26839  -0.08733
C          C       0.85316   0.55463   0.25752   0.17795
C          C       0.84914   0.55697   0.23476  -0.05109
C          C       0.94396   0.55783   0.22337  -0.16104
C          C       0.04162   0.55739   0.23368  -0.04779
C          C       0.04327   0.55806   0.25641   0.17533
C          C       0.75053   0.55678   0.22232   0.12133
C          C       0.66929   0.48527   0.22638  -0.18072
C          C       0.58342   0.48164   0.21260   0.07226
C          C       0.64867   0.61703   0.19175   0.07588
C          C       0.73766   0.62445   0.20458  -0.18793
C          C       0.13765   0.55246   0.22048   0.11869
C          C       0.14294   0.48378   0.20275  -0.18635
C          C       0.23276   0.48021   0.19013   0.08336
C          C       0.31210   0.60823   0.21085   0.07581
C          C       0.22580   0.61547   0.22444  -0.18232
C          C       0.72134   0.65184   0.27568  -0.18737
C          C       0.18245   0.45847   0.27146  -0.18712
C          C       0.55573   0.95518   0.70770  -0.10462
C          C       0.65068   0.96783   0.69657   0.17246
C          C       0.65215   0.97715   0.67395  -0.04473
C          C       0.55602   0.97741   0.66303  -0.12922
C          C       0.45990   0.96579   0.67363  -0.04756
C          C       0.46101   0.95272   0.69620   0.17737
C          C       0.74964   0.98654   0.66127   0.12308
C          C       0.75910   0.06497   0.64550  -0.18088
C          C       0.84861   0.06943   0.63279   0.08674
C          C       0.92004   0.92533   0.65007   0.06643
C          C       0.83375   0.91624   0.66364  -0.18679
C          C       0.36236   0.96951   0.66080   0.12739
C          C       0.35186   0.90857   0.64203  -0.18304
C          C       0.26232   0.91834   0.62940   0.07939
C          C       0.19274   0.04311   0.65241   0.07058
C          C       0.27898   0.03691   0.66607  -0.18483
C          C       0.79253   0.07002   0.70982  -0.18478
C          C       0.32245   0.83817   0.70573  -0.18332
C          C       0.55612   0.94983   0.73165  -0.08699
C          C       0.55475   0.85323   0.74251   0.17718
C          C       0.55689   0.84911   0.76526  -0.05164
C          C       0.55775   0.94385   0.77667  -0.16023
C          C       0.55753   0.04146   0.76635  -0.04877
C          C       0.55819   0.04325   0.74363   0.17540
C          C       0.55668   0.75057   0.77770   0.12193
C          C       0.48527   0.66929   0.77364  -0.18047
C          C       0.48172   0.58363   0.78747   0.07065
C          C       0.61761   0.64894   0.80823   0.07700
C          C       0.62458   0.73792   0.79540  -0.18915
C          C       0.55246   0.13742   0.77953   0.11936
C          C       0.48339   0.14266   0.79719  -0.18683
C          C       0.47969   0.23236   0.80984   0.08220
C          C       0.60812   0.31176   0.78919   0.07638
C          C       0.61569   0.22542   0.77562  -0.18306
C          C       0.65172   0.72151   0.72432  -0.18714
C          C       0.45853   0.18243   0.72864  -0.18679
C          C       0.44441   0.04517   0.20768  -0.10471
C          C       0.34942   0.03231   0.19653   0.17123
C          C       0.34793   0.02268   0.17390  -0.04383
C          C       0.44417   0.02204   0.16303  -0.12992
C          C       0.54029   0.03417   0.17365  -0.04651
C          C       0.53922   0.04805   0.19619   0.17727
C          C       0.25048   0.01332   0.16117   0.12382
C          C       0.24048   0.93450   0.14548  -0.18225
C          C       0.15082   0.93016   0.13280   0.08523
C          C       0.08031   0.07515   0.14988   0.06700
C          C       0.16668   0.08412   0.16345  -0.18765
C          C       0.63784   0.03019   0.16082   0.12510
C          C       0.64777   0.08998   0.14189  -0.18139
C          C       0.73726   0.08023   0.12926   0.07956
C          C       0.80792   0.95737   0.15253   0.06964
C          C       0.72174   0.96359   0.16620  -0.18342
C          C       0.20715   0.93029   0.20970  -0.18506
C          C       0.67808   0.16286   0.20597  -0.18215
C          C       0.44386   0.05028   0.23163  -0.08617
C          C       0.44521   0.14677   0.24253   0.17724
C          C       0.44287   0.15065   0.26528  -0.05191
C          C       0.44188   0.05584   0.27668  -0.16030
C          C       0.44216   0.95828   0.26634  -0.04826
C          C       0.44167   0.95675   0.24360   0.17502
C          C       0.44325   0.24917   0.27774   0.12126
C          C       0.51506   0.33008   0.27367  -0.18073
C          C       0.51891   0.41598   0.28742   0.07180
C          C       0.38294   0.35134   0.30823   0.07614
C          C       0.37540   0.26225   0.29543  -0.18815
C          C       0.44717   0.86221   0.27952   0.11793
C          C       0.51516   0.85738   0.29737  -0.18671
C          C       0.51909   0.76743   0.30996   0.08322
C          C       0.39213   0.68736   0.28905   0.07585
C          C       0.38485   0.77369   0.27546  -0.18182
C          C       0.34846   0.27870   0.22435  -0.18740
C          C       0.54125   0.81744   0.22864  -0.18491
C          C       0.45736   0.94436   0.95773  -0.10299
C          C       0.46937   0.84911   0.94660   0.17119
C          C       0.47682   0.84771   0.92395  -0.04364
C          C       0.47678   0.94385   0.91301  -0.12824
C          C       0.46648   0.04010   0.92364  -0.04515
C          C       0.45454   0.03923   0.94623   0.17343
C          C       0.48562   0.75023   0.91124   0.12380
C          C       0.56311   0.74127   0.89526  -0.18155
C          C       0.56821   0.65148   0.88266   0.08394
C          C       0.42554   0.57927   0.90021   0.06923
C          C       0.41636   0.66554   0.91380  -0.18940
C          C       0.46995   0.13770   0.91081   0.12463
C          C       0.40750   0.14893   0.89226  -0.18091
C          C       0.41702   0.23827   0.87957   0.07894
C          C       0.54395   0.30666   0.90219   0.06759
C          C       0.53823   0.22052   0.91588  -0.18119
C          C       0.57175   0.70623   0.95986  -0.18347
C          C       0.34104   0.17863   0.95607  -0.18158
C          C       0.45198   0.94400   0.98167  -0.08691
C          C       0.35525   0.94614   0.99249   0.17827
C          C       0.35111   0.94373   0.01524  -0.05122
C          C       0.44590   0.94243   0.02664  -0.15953
C          C       0.54363   0.94214   0.01637  -0.05056
C          C       0.54546   0.94131   0.99365   0.17506
C          C       0.25252   0.94377   0.02767   0.12164
C          C       0.17060   0.01446   0.02343  -0.18047
C          C       0.08475   0.01805   0.03720   0.07531
C          C       0.15102   0.88350   0.05825   0.07785
C          C       0.24020   0.87646   0.04547  -0.19011
C          C       0.63946   0.94692   0.02962   0.12012
C          C       0.64468   0.01656   0.04719  -0.18651
C          C       0.73460   0.02082   0.05976   0.08178
C          C       0.81383   0.89109   0.03942   0.07753
C          C       0.72735   0.88301   0.02589  -0.18128
C          C       0.22166   0.85082   0.97443  -0.18939
C          C       0.68519   0.03993   0.97869  -0.18682
C          C       0.54271   0.05501   0.45774  -0.10320
C          C       0.53195   0.15036   0.44660   0.17242
C          C       0.52325   0.15166   0.42396  -0.04461
C          C       0.52214   0.05550   0.41304  -0.12740
C          C       0.53235   0.95924   0.42367  -0.04557
C          C       0.54464   0.96021   0.44624   0.17414
C          C       0.51448   0.24909   0.41123   0.12475
C          C       0.43683   0.25819   0.39527  -0.18190
C          C       0.43225   0.34775   0.38257   0.08458
C          C       0.57486   0.41996   0.40014   0.06835
C          C       0.58413   0.33352   0.41369  -0.19048
C          C       0.52925   0.86165   0.41086   0.12627
C          C       0.59064   0.85125   0.39214  -0.18203
C          C       0.58143   0.76176   0.37948   0.07910
C          C       0.45654   0.69196   0.40236   0.06900
C          C       0.46232   0.77799   0.41607  -0.18411
C          C       0.43119   0.29348   0.46002  -0.18437
C          C       0.65912   0.82184   0.45606  -0.18011
C          C       0.54790   0.05494   0.48167  -0.08629
C          C       0.64460   0.05365   0.49251   0.17773
C          C       0.64872   0.05660   0.51524  -0.05210
C          C       0.55399   0.05814   0.52667  -0.16140
C          C       0.45627   0.05704   0.51637  -0.04792
C          C       0.45433   0.05642   0.49364   0.17398
C          C       0.74751   0.05663   0.52761   0.12223
C          C       0.82873   0.98487   0.52357  -0.18087
C          C       0.91446   0.98116   0.53737   0.07669
C          C       0.84976   0.11770   0.55803   0.07884
C          C       0.76052   0.12473   0.54526  -0.19078
C          C       0.36037   0.05226   0.52961   0.11916
C          C       0.35523   0.98298   0.54723  -0.18630
C          C       0.26536   0.97888   0.55982   0.08229
C          C       0.18625   0.10846   0.53944   0.07923
C          C       0.27245   0.11606   0.52584  -0.18139
C          C       0.77822   0.14903   0.47443  -0.18967
C          C       0.31593   0.95534   0.47856  -0.18546
I          I       0.79830   0.94640   0.90051  -0.45080
I          I       0.16665   0.94996   0.91097  -0.44322
I          I       0.20078   0.05333   0.40052  -0.45035
I          I       0.83219   0.04936   0.41079  -0.44319
I          I       0.55383   0.29752   0.65073  -0.44770
I          I       0.54984   0.66603   0.66086  -0.44486
I          I       0.44627   0.70281   0.15039  -0.44781
I          I       0.45091   0.33454   0.16066  -0.44478
I          I       0.70195   0.44626   0.84968  -0.44772
I          I       0.33380   0.45036   0.83938  -0.44563
I          I       0.29787   0.55327   0.34945  -0.44783
I          I       0.66615   0.54925   0.33920  -0.44541
I          I       0.94739   0.79819   0.09947  -0.44964
I          I       0.95056   0.16691   0.08950  -0.44292
I          I       0.05311   0.20155   0.59928  -0.44906
I          I       0.04980   0.83288   0.58928  -0.44237
N          N       0.57171   0.49953   0.11531  -0.18530
N          N       0.31704   0.48578   0.11594  -0.18035
N          N       0.95387   0.07474   0.94554  -0.18503
N          N       0.95937   0.81922   0.94389  -0.18106
N          N       0.42817   0.49931   0.61558  -0.18632
N          N       0.68267   0.51404   0.61596  -0.18066
N          N       0.04516   0.92575   0.44555  -0.18321
N          N       0.04037   0.18064   0.44402  -0.18285
N          N       0.00044   0.07240   0.86563  -0.18360
N          N       0.01617   0.81791   0.86584  -0.18295
N          N       0.42711   0.45403   0.69542  -0.18241
N          N       0.68319   0.45875   0.69414  -0.18267
N          N      -0.00120   0.92820   0.36540  -0.18422
N          N       0.98457   0.18276   0.36591  -0.18104
N          N       0.57210   0.54605   0.19539  -0.18083
N          N       0.31718   0.54129   0.19394  -0.18176
N          N       0.92839   0.00023   0.63469  -0.18563
N          N       0.18355   0.98545   0.63415  -0.18163
N          N       0.54631   0.57251   0.80467  -0.18027
N          N       0.54084   0.31678   0.80605  -0.18227
N          N       0.07142  -0.00019   0.13462  -0.18396
N          N       0.81667   0.01418   0.13416  -0.18196
N          N       0.45428   0.42759   0.30459  -0.18154
N          N       0.45878   0.68260   0.30601  -0.18213
N          N       0.49996   0.57120   0.88472  -0.18441
N          N       0.48518   0.31631   0.88409  -0.18153
N          N       0.07408   0.95423   0.05453  -0.18449
N          N       0.81915   0.95953   0.05606  -0.18159
N          N       0.50040   0.42811   0.38466  -0.18416
N          N       0.51433   0.68300   0.38412  -0.18079
N          N       0.92607   0.04611   0.55448  -0.18682
N          N       0.18091   0.04023   0.55610  -0.18164
O          O       0.75787   0.47161   0.04126  -0.20504
O          O       0.13209   0.44438   0.04225  -0.20777
O          O       0.95235   0.26459   0.01946  -0.19502
O          O       0.94190   0.64065   0.01735  -0.19883
O          O       0.24326   0.53378   0.54218  -0.20615
O          O       0.86799   0.55526   0.54226  -0.20951
O          O       0.04772   0.73585   0.51952  -0.19588
O          O       0.06279   0.35980   0.51741  -0.19878
O          O       0.03181   0.25721   0.79211  -0.20610
O          O       0.05808   0.63069   0.79226  -0.20744
O          O       0.23841   0.44961   0.76952  -0.19617
O          O       0.86228   0.43885   0.76746  -0.19767
O          O       0.96828   0.74148   0.29132  -0.20327
O          O       0.94106   0.36841   0.29231  -0.20998
O          O       0.76163   0.54991   0.26942  -0.19731
O          O       0.13770   0.56106   0.26739  -0.19872
O          O       0.74180   0.96846   0.70874  -0.20320
O          O       0.36886   0.94161   0.70776  -0.20794
O          O       0.54985   0.76183   0.73057  -0.19622
O          O       0.56116   0.13768   0.73264  -0.19905
O          O       0.25839   0.03161   0.20872  -0.20283
O          O       0.63147   0.05931   0.20775  -0.20878
O          O       0.45027   0.23829   0.23062  -0.19690
O          O       0.43871   0.86233   0.23262  -0.19851
O          O       0.47046   0.75761   0.95871  -0.20311
O          O       0.44456   0.13191   0.95773  -0.20809
O          O       0.26392   0.95216   0.98053  -0.19598
O          O       0.63990   0.93746   0.98263  -0.19779
O          O       0.53251   0.24207   0.45867  -0.20478
O          O       0.55525   0.86769   0.45776  -0.20848
O          O       0.73612   0.04775   0.48060  -0.19639
O          O       0.35971   0.05829   0.48268  -0.19977

