data_crystal

_audit_creation_method 'AiiDA-DDEC plugin'

_cell_length_a        22.16944
_cell_length_b        22.47757
_cell_length_c        40.30733

_cell_angle_alpha     90.00000
_cell_angle_beta     90.00000
_cell_angle_gamma     90.00000

_symmetry_space_group_name_Hall 'P 1'
_symmetry_space_group_name_H-M  'P 1'

loop_
_symmetry_equiv_pos_as_xyz
 'x,y,z'

loop_
_atom_site_label
_atom_site_type_symbol
_atom_site_fract_x
_atom_site_fract_y
_atom_site_fract_z
_atom_site_charge
Zn         Zn      0.82858   0.00131   0.71456   0.95451
Zn         Zn      0.27367   0.42386   0.96369   0.96634
Zn         Zn      0.76952   0.35289   0.71457   0.95998
Zn         Zn      0.20192   0.50208   0.01156   0.91054
Zn         Zn      0.75318   0.92678   0.76165   0.90935
Zn         Zn      0.18335   0.94542   0.99006   0.94697
Zn         Zn      0.62842   0.46796   0.97046   0.92606
Zn         Zn      0.19819   0.95377   0.73125   0.99039
Zn         Zn      0.66523   0.39087   0.73968   0.99337
Zn         Zn      0.72852   0.42413   0.01104   0.95536
Zn         Zn      0.67142  -0.00131   0.21456   0.95452
Zn         Zn      0.22633   0.57614   0.46370   0.96631
Zn         Zn      0.73048   0.64711   0.21458   0.95990
Zn         Zn      0.29808   0.49792   0.51156   0.91077
Zn         Zn      0.74682   0.07322   0.26165   0.90936
Zn         Zn      0.31665   0.05458   0.49006   0.94712
Zn         Zn      0.87158   0.53204   0.47046   0.92624
Zn         Zn      0.30182   0.04620   0.23124   0.99025
Zn         Zn      0.83478   0.60912   0.23968   0.99350
Zn         Zn      0.77149   0.57586   0.51104   0.95535
Zn         Zn      0.17142   0.50131   0.78543   0.95496
Zn         Zn      0.72633   0.92386   0.53630   0.96642
Zn         Zn      0.23048   0.85289   0.78542   0.95996
Zn         Zn      0.79808   0.00208   0.48844   0.91092
Zn         Zn      0.24682   0.42678   0.73834   0.90946
Zn         Zn      0.81665   0.44542   0.50994   0.94718
Zn         Zn      0.37157   0.96796   0.52953   0.92617
Zn         Zn      0.80182   0.45379   0.76875   0.99031
Zn         Zn      0.33477   0.89087   0.76032   0.99363
Zn         Zn      0.27149   0.92413   0.48896   0.95548
Zn         Zn      0.32858   0.49869   0.28543   0.95472
Zn         Zn      0.77367   0.07614   0.03630   0.96646
Zn         Zn      0.26952   0.14711   0.28542   0.95995
Zn         Zn      0.70192   0.99792   0.98844   0.91072
Zn         Zn      0.25318   0.57322   0.23834   0.90943
Zn         Zn      0.68335   0.55458   0.00994   0.94700
Zn         Zn      0.12842   0.03204   0.02954   0.92593
Zn         Zn      0.69818   0.54621   0.26876   0.99026
Zn         Zn      0.16523   0.10912   0.26032   0.99356
Zn         Zn      0.22852   0.07586   0.98896   0.95520
H          H       0.25839   0.41268   0.85155   0.14707
H          H       0.37349   0.28530   0.89950   0.13515
H          H       0.35379   0.28245   0.79262   0.14462
H          H       0.46816   0.25443   0.87764   0.09119
H          H       0.41655   0.19750   0.89001   0.09018
H          H       0.56798   0.12343   0.87934   0.09004
H          H       0.50982   0.13750   0.90921   0.09155
H          H       0.55123   0.22549   0.83425   0.09146
H          H       0.49295   0.19833   0.80745   0.09294
H          H       0.61363   0.12001   0.92949   0.13294
H          H       0.71688   0.23519   0.99298   0.14286
H          H       0.59683   0.31052   0.91986   0.14661
H          H       0.63186   0.05524   0.79880   0.14376
H          H       0.74157   0.16226   0.73363   0.14477
H          H       0.59272   0.24199   0.78590   0.13484
H          H       0.39741   0.01172   0.82992   0.13773
H          H       0.48638   0.07301   0.84265   0.08888
H          H       0.42164   0.11591   0.83099   0.09172
H          H       0.36408   0.06368   0.93110   0.14284
H          H       0.26663   0.91608   0.88853   0.13589
H          H       0.71122   0.49773   0.88095   0.13843
H          H       0.79731   0.64163   0.93335   0.13264
H          H       0.84498   0.60414   0.83146   0.14479
H          H       0.84982   0.73443   0.91696   0.08838
H          H       0.89885   0.67375   0.92714   0.09140
H          H       0.88833   0.81505   0.87692   0.08921
H          H       0.90719   0.75958   0.84663   0.09330
H          H       0.88295   0.86084   0.82406   0.13400
H          H      -0.00072   0.94483   0.75219   0.14434
H          H       0.07566   0.84424   0.83308   0.14382
H          H       0.02861   0.72468   0.87382   0.08637
H          H       0.97113   0.67170   0.86374   0.09037
H          H       0.05410   0.62209   0.85116   0.13666
H          H       0.17804   0.50038   0.89734   0.14568
H          H       0.06556   0.61308   0.95820   0.14533
H          H       0.83307   0.88386   0.95599   0.14480
H          H       0.00323   0.80461   0.91799   0.09305
H          H       0.97852   0.74871   0.94659   0.09172
H          H       0.02425   0.85006   0.96365   0.13377
H          H       0.94558   0.99701   0.01637   0.13975
H          H       0.24161   0.58732   0.35155   0.14714
H          H       0.12651   0.71469   0.39951   0.13527
H          H       0.14622   0.71755   0.29262   0.14741
H          H       0.03184   0.74556   0.37764   0.09132
H          H       0.08345   0.80250   0.39002   0.09022
H          H       0.93202   0.87656   0.37934   0.08983
H          H       0.99018   0.86249   0.40921   0.09169
H          H       0.94877   0.77451   0.33425   0.09151
H          H       0.00705   0.80167   0.30745   0.09282
H          H       0.88637   0.87999   0.42949   0.13282
H          H       0.78312   0.76481   0.49298   0.14295
H          H       0.90317   0.68947   0.41987   0.14671
H          H       0.86815   0.94476   0.29880   0.14371
H          H       0.75843   0.83774   0.23363   0.14039
H          H       0.90728   0.75801   0.28590   0.13494
H          H       0.10259   0.98827   0.32992   0.13762
H          H       0.01362   0.92699   0.34265   0.08880
H          H       0.07836   0.88408   0.33099   0.09160
H          H       0.13591   0.93632   0.43110   0.14303
H          H       0.23337   0.08392   0.38853   0.13587
H          H       0.78878   0.50227   0.38096   0.13834
H          H       0.70269   0.35837   0.43336   0.13271
H          H       0.65502   0.39586   0.33146   0.14509
H          H       0.65018   0.26557   0.41696   0.08860
H          H       0.60116   0.32625   0.42714   0.09143
H          H       0.61167   0.18495   0.37692   0.08950
H          H       0.59282   0.24042   0.34663   0.09321
H          H       0.61705   0.13916   0.32406   0.13402
H          H       0.50072   0.05517   0.25219   0.14425
H          H       0.42434   0.15576   0.33308   0.14390
H          H       0.47139   0.27531   0.37383   0.08629
H          H       0.52888   0.32830   0.36374   0.09020
H          H       0.44590   0.37791   0.35116   0.13654
H          H       0.32196   0.49961   0.39734   0.14555
H          H       0.43444   0.38692   0.45820   0.14550
H          H       0.66693   0.11613   0.45599   0.14476
H          H       0.49677   0.19539   0.41799   0.09297
H          H       0.52148   0.25129   0.44659   0.09178
H          H       0.47575   0.14994   0.46365   0.13362
H          H       0.55442   0.00299   0.51637   0.13982
H          H       0.74161   0.91268   0.64845   0.14715
H          H       0.62651   0.78530   0.60049   0.13560
H          H       0.64622   0.78245   0.70738   0.14415
H          H       0.53184   0.75443   0.62235   0.09144
H          H       0.58345   0.69750   0.60998   0.09056
H          H       0.43202   0.62343   0.62066   0.08986
H          H       0.49018   0.63751   0.59078   0.09209
H          H       0.44877   0.72549   0.66574   0.09156
H          H       0.50705   0.69833   0.69255   0.09238
H          H       0.38637   0.62001   0.57051   0.13271
H          H       0.28311   0.73519   0.50702   0.14327
H          H       0.40317   0.81053   0.58013   0.14642
H          H       0.36814   0.55524   0.70120   0.14396
H          H       0.25843   0.66226   0.76637   0.14435
H          H       0.40728   0.74199   0.71409   0.13499
H          H       0.60259   0.51172   0.67008   0.13722
H          H       0.51362   0.57301   0.65735   0.08870
H          H       0.57836   0.61592   0.66901   0.09425
H          H       0.63592   0.56368   0.56890   0.14327
H          H       0.73337   0.41608   0.61147   0.13593
H          H       0.28877   0.99771   0.61903   0.13848
H          H       0.20269   0.14164   0.56665   0.13304
H          H       0.15500   0.10412   0.66854   0.14441
H          H       0.15017   0.23444   0.58303   0.08856
H          H       0.10116   0.17375   0.57286   0.09167
H          H       0.11166   0.31505   0.62308   0.08954
H          H       0.09281   0.25958   0.65336   0.09296
H          H       0.11704   0.36084   0.67594   0.13408
H          H       0.00072   0.44483   0.74781   0.14387
H          H       0.92434   0.34424   0.66691   0.14400
H          H       0.97139   0.22468   0.62617   0.08768
H          H       0.02888   0.17170   0.63626   0.08986
H          H       0.94590   0.12209   0.64884   0.13617
H          H       0.82196   0.00038   0.60265   0.14553
H          H       0.93444   0.11308   0.54179   0.14579
H          H       0.16693   0.38387   0.54400   0.14466
H          H       0.99677   0.30461   0.58201   0.09281
H          H       0.02148   0.24871   0.55340   0.09222
H          H       0.97575   0.35006   0.53635   0.13362
H          H       0.05442   0.49701   0.48362   0.13993
H          H       0.75840   0.08732   0.14845   0.14714
H          H       0.87350   0.21469   0.10049   0.13542
H          H       0.85379   0.21755   0.20738   0.14427
H          H       0.96816   0.24556   0.12236   0.09149
H          H       0.91655   0.30250   0.10998   0.09034
H          H       0.06798   0.37656   0.12066   0.08983
H          H       0.00982   0.36249   0.09078   0.09179
H          H       0.05123   0.27451   0.16575   0.09155
H          H       0.99295   0.30167   0.19255   0.09255
H          H       0.11363   0.37999   0.07051   0.13276
H          H       0.21689   0.26481   0.00702   0.14314
H          H       0.09683   0.18947   0.08013   0.14655
H          H       0.13186   0.44476   0.20120   0.14380
H          H       0.24157   0.33774   0.26637   0.14449
H          H       0.09272   0.25801   0.21410   0.13497
H          H       0.89741   0.48827   0.17008   0.13748
H          H       0.98638   0.42699   0.15735   0.08885
H          H       0.92164   0.38408   0.16901   0.09151
H          H       0.86409   0.43632   0.06890   0.14317
H          H       0.76663   0.58392   0.11147   0.13586
H          H       0.21122   0.00227   0.11904   0.13834
H          H       0.29731   0.85837   0.06664   0.13298
H          H       0.34498   0.89585   0.16854   0.14459
H          H       0.34982   0.76557   0.08304   0.08857
H          H       0.39885   0.82625   0.07286   0.09147
H          H       0.38833   0.68495   0.12308   0.08952
H          H       0.40719   0.74042   0.15336   0.09303
H          H       0.38295   0.63916   0.17594   0.13398
H          H       0.49929   0.55517   0.24781   0.14413
H          H       0.57566   0.65576   0.16692   0.14399
H          H       0.52861   0.77531   0.12617   0.08638
H          H       0.47113   0.82830   0.13626   0.09012
H          H       0.55410   0.87791   0.14884   0.13631
H          H       0.67804  -0.00038   0.10266   0.14559
H          H       0.56556   0.88692   0.04179   0.14561
H          H       0.33307   0.61613   0.04401   0.14463
H          H       0.50323   0.69539   0.08201   0.09297
H          H       0.47852   0.75129   0.05341   0.09203
H          H       0.52425   0.64994   0.03635   0.13368
H          H       0.44558   0.50299   0.98362   0.13997
C          C       0.88026   0.92729   0.76983   0.60478
C          C       0.72617   0.04867   0.75723   0.59998
C          C       0.27868   0.37732   0.78846   0.57154
C          C       0.30334   0.34983   0.81900  -0.02030
C          C       0.28890   0.37487   0.84993  -0.11895
C          C       0.31494   0.35092   0.87852   0.00025
C          C       0.35446   0.30220   0.87653  -0.22259
C          C       0.36795   0.27720   0.84565   0.24333
C          C       0.34257   0.30111   0.81673  -0.19508
C          C       0.44388   0.21456   0.86934  -0.03920
C          C       0.48870   0.16606   0.85863   0.06004
C          C       0.53334   0.15532   0.88738  -0.03635
C          C       0.52372   0.18650   0.82776  -0.03539
C          C       0.60088   0.21462   0.92105   0.25082
C          C       0.62564   0.16497   0.93668  -0.22013
C          C       0.66746   0.17289   0.96253  -0.02071
C          C       0.68471   0.22981   0.97287  -0.12171
C          C       0.65884   0.27945   0.95727  -0.02437
C          C       0.61714   0.27182   0.93152  -0.18276
C          C       0.67209   0.34159   0.96853   0.60121
C          C       0.60688   0.14774   0.79538   0.25048
C          C       0.64206   0.09796   0.78750  -0.18648
C          C       0.69005   0.10304   0.76522  -0.02322
C          C       0.70387   0.15830   0.75071  -0.12004
C          C       0.66830   0.20788   0.75851  -0.01827
C          C       0.61938   0.20262   0.78064  -0.22079
C          C       0.68192   0.26795   0.74416   0.59917
C          C       0.31880   0.92302   0.82633   0.59612
C          C       0.33121   0.96022   0.85650  -0.01957
C          C       0.37431   0.00609   0.85344  -0.22673
C          C       0.38560   0.04319   0.88044   0.25149
C          C       0.45487   0.10780   0.85076  -0.03188
C          C       0.35510   0.03420   0.91035  -0.18896
C          C       0.31257   0.98872   0.91369  -0.02738
C          C       0.30020   0.95116   0.88652  -0.11943
C          C       0.27988   0.98563   0.94645   0.60695
C          C       0.10767   0.90080   0.77856   0.60759
C          C       0.77232   0.50694   0.82329   0.55562
C          C       0.77722   0.54689   0.85290  -0.00861
C          C       0.74285   0.53456   0.88124  -0.12924
C          C       0.75046   0.56860   0.91003  -0.02059
C          C       0.71505   0.55171   0.94023   0.58994
C          C       0.05235   0.94234   0.00252   0.60111
C          C       0.79178   0.61617   0.91063  -0.22887
C          C       0.82463   0.62879   0.88186   0.24464
C          C       0.81778   0.59424   0.85319  -0.19384
C          C       0.88566   0.70521   0.90753  -0.03762
C          C       0.94090   0.74140   0.89659   0.05946
C          C       0.92347   0.78409   0.86844  -0.03759
C          C       0.97906   0.84958   0.83225   0.25015
C          C       0.92833   0.87059   0.81555  -0.21719
C          C       0.93595   0.90557   0.78686  -0.02434
C          C       0.99379   0.91849   0.77460  -0.12222
C          C       0.04431   0.89539   0.79130  -0.02550
C          C       0.03665   0.86208   0.82022  -0.18493
C          C       0.99011   0.69945   0.88360  -0.03778
C          C       0.05342   0.62207   0.90531   0.24541
C          C       0.07265   0.60371   0.87390  -0.21783
C          C       0.11717   0.55942   0.87127  -0.00278
C          C       0.13641   0.53924   0.83776   0.54406
C          C       0.14330   0.53434   0.89954  -0.11901
C          C       0.12454   0.55458   0.93080  -0.02202
C          C       0.07961   0.59782   0.93381  -0.19610
C          C       0.15356   0.53196   0.96118   0.57777
C          C       0.69262   0.11883   0.97881   0.60029
C          C       0.30158   0.37676   0.91177   0.54747
C          C       0.82836   0.97919   0.99536   0.60387
C          C       0.88338   0.94396   0.98727  -0.02895
C          C       0.87701   0.89528   0.96602  -0.19568
C          C       0.92728   0.86111   0.95745   0.24898
C          C       0.96458   0.77765   0.92602  -0.04013
C          C       0.98419   0.87542   0.96994  -0.21866
C          C       0.99049   0.92475   0.99107  -0.01870
C          C       0.94028   0.95894   0.00005  -0.12348
C          C       0.61974   0.07271   0.26983   0.60468
C          C       0.77383   0.95133   0.25723   0.60007
C          C       0.22132   0.62268   0.28846   0.57178
C          C       0.19666   0.65017   0.31900  -0.02096
C          C       0.21110   0.62513   0.34993  -0.11862
C          C       0.18506   0.64907   0.37853   0.00036
C          C       0.14554   0.69779   0.37654  -0.22261
C          C       0.13205   0.72280   0.34565   0.24315
C          C       0.15743   0.69888   0.31673  -0.19737
C          C       0.05612   0.78543   0.36934  -0.03899
C          C       0.01130   0.83394   0.35863   0.06037
C          C       0.96667   0.84468   0.38738  -0.03637
C          C       0.97628   0.81350   0.32776  -0.03515
C          C       0.89912   0.78538   0.42105   0.25077
C          C       0.87436   0.83503   0.43668  -0.22021
C          C       0.83254   0.82711   0.46253  -0.02089
C          C       0.81529   0.77018   0.47287  -0.12162
C          C       0.84116   0.72054   0.45728  -0.02440
C          C       0.88286   0.72817   0.43152  -0.18268
C          C       0.82791   0.65841   0.46854   0.60103
C          C       0.89312   0.85225   0.29538   0.25045
C          C       0.85795   0.90204   0.28751  -0.18658
C          C       0.80995   0.89696   0.26522  -0.02295
C          C       0.79613   0.84170   0.25071  -0.11651
C          C       0.83170   0.79212   0.25852  -0.01822
C          C       0.88062   0.79737   0.28064  -0.22060
C          C       0.81808   0.73205   0.24416   0.59909
C          C       0.18120   0.07698   0.32633   0.59611
C          C       0.16880   0.03977   0.35650  -0.01963
C          C       0.12569   0.99391   0.35344  -0.22681
C          C       0.11441   0.95681   0.38044   0.25136
C          C       0.04513   0.89220   0.35076  -0.03217
C          C       0.14490   0.96580   0.41035  -0.18890
C          C       0.18743   0.01128   0.41369  -0.02729
C          C       0.19980   0.04884   0.38652  -0.11954
C          C       0.22012   0.01436   0.44645   0.60697
C          C       0.39233   0.09919   0.27856   0.60749
C          C       0.72769   0.49305   0.32329   0.55570
C          C       0.72279   0.45310   0.35290  -0.00870
C          C       0.75715   0.46544   0.38124  -0.12904
C          C       0.74954   0.43140   0.41003  -0.02068
C          C       0.78495   0.44829   0.44023   0.58964
C          C       0.44765   0.05766   0.50252   0.60113
C          C       0.70822   0.38382   0.41064  -0.22835
C          C       0.67537   0.37121   0.38186   0.24438
C          C       0.68222   0.40576   0.35319  -0.19462
C          C       0.61434   0.29479   0.40753  -0.03741
C          C       0.55911   0.25860   0.39659   0.05935
C          C       0.57653   0.21590   0.36844  -0.03775
C          C       0.52094   0.15042   0.33225   0.25001
C          C       0.57167   0.12941   0.31555  -0.21691
C          C       0.56405   0.09443   0.28686  -0.02442
C          C       0.50621   0.08151   0.27460  -0.12227
C          C       0.45569   0.10461   0.29130  -0.02547
C          C       0.46335   0.13792   0.32022  -0.18503
C          C       0.50989   0.30054   0.38361  -0.03783
C          C       0.44658   0.37793   0.40531   0.24529
C          C       0.42735   0.39629   0.37390  -0.21783
C          C       0.38283   0.44058   0.37127  -0.00288
C          C       0.36359   0.46076   0.33777   0.54431
C          C       0.35670   0.46566   0.39954  -0.11894
C          C       0.37546   0.44542   0.43080  -0.02226
C          C       0.42039   0.40218   0.43381  -0.19579
C          C       0.34644   0.46803   0.46118   0.57775
C          C       0.80738   0.88117   0.47881   0.60095
C          C       0.19842   0.62324   0.41177   0.54700
C          C       0.67164   0.02081   0.49536   0.60440
C          C       0.61662   0.05604   0.48727  -0.02915
C          C       0.62299   0.10471   0.46602  -0.19562
C          C       0.57272   0.13889   0.45746   0.24891
C          C       0.53542   0.22235   0.42602  -0.04018
C          C       0.51581   0.12458   0.46995  -0.21875
C          C       0.50951   0.07525   0.49107  -0.01880
C          C       0.55972   0.04106   0.50005  -0.12304
C          C       0.11974   0.42729   0.73016   0.60495
C          C       0.27383   0.54867   0.74277   0.60052
C          C       0.72132   0.87732   0.71154   0.57227
C          C       0.69666   0.84983   0.68100  -0.02099
C          C       0.71110   0.87487   0.65006  -0.11869
C          C       0.68506   0.85092   0.62147   0.00049
C          C       0.64555   0.80220   0.62346  -0.22253
C          C       0.63205   0.77720   0.65435   0.24342
C          C       0.65743   0.80111   0.68327  -0.19506
C          C       0.55612   0.71456   0.63066  -0.03896
C          C       0.51130   0.66606   0.64136   0.06000
C          C       0.46666   0.65532   0.61261  -0.03644
C          C       0.47628   0.68650   0.67223  -0.03524
C          C       0.39912   0.71462   0.57895   0.25093
C          C       0.37436   0.66497   0.56332  -0.22023
C          C       0.33254   0.67289   0.53747  -0.02064
C          C       0.31529   0.72982   0.52712  -0.12154
C          C       0.34116   0.77945   0.54272  -0.02443
C          C       0.38285   0.77183   0.56848  -0.18290
C          C       0.32791   0.84159   0.53146   0.60118
C          C       0.39312   0.64774   0.70462   0.25043
C          C       0.35795   0.59796   0.71249  -0.18627
C          C       0.30995   0.60304   0.73477  -0.02343
C          C       0.29613   0.65830   0.74929  -0.12004
C          C       0.33170   0.70788   0.74148  -0.01854
C          C       0.38062   0.70262   0.71935  -0.22074
C          C       0.31808   0.76794   0.75584   0.59936
C          C       0.68120   0.42302   0.67367   0.59659
C          C       0.66879   0.46022   0.64349  -0.01990
C          C       0.62569   0.50609   0.64656  -0.22689
C          C       0.61441   0.54319   0.61956   0.25138
C          C       0.54514   0.60780   0.64924  -0.03461
C          C       0.64490   0.53420   0.58965  -0.18888
C          C       0.68743   0.48872   0.58630  -0.02726
C          C       0.69980   0.45116   0.61348  -0.11939
C          C       0.72012   0.48563   0.55354   0.60678
C          C       0.89232   0.40081   0.72144   0.60758
C          C       0.22771   0.00692   0.67670   0.55585
C          C       0.22278   0.04687   0.64709  -0.00876
C          C       0.25714   0.03455   0.61875  -0.12920
C          C       0.24953   0.06859   0.58996  -0.02049
C          C       0.28495   0.05171   0.55976   0.58946
C          C       0.94765   0.44234   0.49748   0.60159
C          C       0.20822   0.11617   0.58936  -0.22859
C          C       0.17536   0.12878   0.61813   0.24472
C          C       0.18221   0.09422   0.64680  -0.19436
C          C       0.11434   0.20521   0.59247  -0.03701
C          C       0.05910   0.24140   0.60341   0.05913
C          C       0.07653   0.28410   0.63155  -0.03805
C          C       0.02093   0.34958   0.66775   0.24984
C          C       0.07166   0.37059   0.68444  -0.21687
C          C       0.06404   0.40557   0.71313  -0.02448
C          C       0.00621   0.41849   0.72540  -0.12233
C          C       0.95569   0.39539   0.70870  -0.02553
C          C       0.96335   0.36208   0.67978  -0.18467
C          C       0.00989   0.19945   0.61639  -0.03893
C          C       0.94658   0.12207   0.59468   0.24492
C          C       0.92735   0.10371   0.62609  -0.21780
C          C       0.88283   0.05942   0.62873  -0.00309
C          C       0.86359   0.03924   0.66223   0.54462
C          C       0.85670   0.03434   0.60046  -0.11888
C          C       0.87546   0.05458   0.56920  -0.02236
C          C       0.92039   0.09782   0.56618  -0.19549
C          C       0.84644   0.03196   0.53881   0.57727
C          C       0.30738   0.61883   0.52118   0.60059
C          C       0.69842   0.87676   0.58823   0.54672
C          C       0.17164   0.47919   0.50463   0.60445
C          C       0.11662   0.44396   0.51272  -0.02899
C          C       0.12299   0.39528   0.53397  -0.19593
C          C       0.07272   0.36111   0.54254   0.24891
C          C       0.03542   0.27765   0.57397  -0.04009
C          C       0.01581   0.37542   0.53005  -0.21877
C          C       0.00951   0.42475   0.50893  -0.01886
C          C       0.05972   0.45894   0.49994  -0.12294
C          C       0.38026   0.57271   0.23017   0.60484
C          C       0.22617   0.45133   0.24277   0.60033
C          C       0.77868   0.12268   0.21154   0.57202
C          C       0.80334   0.15017   0.18100  -0.02095
C          C       0.78891   0.12513   0.15006  -0.11876
C          C       0.81494   0.14907   0.12147   0.00043
C          C       0.85446   0.19779   0.12346  -0.22249
C          C       0.86795   0.22280   0.15435   0.24336
C          C       0.84258   0.19889   0.18327  -0.19501
C          C       0.94388   0.28544   0.13066  -0.03904
C          C       0.98870   0.33394   0.14137   0.06030
C          C       0.03334   0.34468   0.11261  -0.03632
C          C       0.02372   0.31350   0.17223  -0.03505
C          C       0.10088   0.28538   0.07895   0.25078
C          C       0.12564   0.33503   0.06332  -0.22029
C          C       0.16746   0.32711   0.03747  -0.02058
C          C       0.18471   0.27018   0.02713  -0.12159
C          C       0.15884   0.22055   0.04272  -0.02448
C          C       0.11715   0.22817   0.06848  -0.18279
C          C       0.17209   0.15841   0.03146   0.60117
C          C       0.10688   0.35225   0.20462   0.25049
C          C       0.14205   0.40204   0.21249  -0.18637
C          C       0.19005   0.39696   0.23477  -0.02337
C          C       0.20387   0.34170   0.24929  -0.12002
C          C       0.16830   0.29212   0.24148  -0.01848
C          C       0.11938   0.29737   0.21935  -0.22060
C          C       0.18192   0.23205   0.25584   0.59907
C          C       0.81880   0.57698   0.17367   0.59658
C          C       0.83121   0.53977   0.14349  -0.01975
C          C       0.87431   0.49391   0.14656  -0.22675
C          C       0.88560   0.45681   0.11956   0.25120
C          C       0.95487   0.39220   0.14924  -0.03242
C          C       0.85510   0.46580   0.08965  -0.18886
C          C       0.81257   0.51128   0.08631  -0.02719
C          C       0.80020   0.54884   0.11348  -0.11959
C          C       0.77988   0.51436   0.05355   0.60674
C          C       0.60768   0.59919   0.22144   0.60744
C          C       0.27232   0.99305   0.17670   0.55594
C          C       0.27722   0.95310   0.14709  -0.00878
C          C       0.24285   0.96544   0.11876  -0.12908
C          C       0.25046   0.93140   0.08997  -0.02064
C          C       0.21505   0.94829   0.05977   0.58958
C          C       0.55236   0.55766   0.99748   0.60115
C          C       0.29178   0.88382   0.08936  -0.22863
C          C       0.32463   0.87121   0.11813   0.24455
C          C       0.31778   0.90575   0.14680  -0.19410
C          C       0.38566   0.79479   0.09247  -0.03711
C          C       0.44090   0.75860   0.10341   0.05930
C          C       0.42347   0.71591   0.13155  -0.03783
C          C       0.47906   0.65042   0.16775   0.24997
C          C       0.42834   0.62941   0.18445  -0.21690
C          C       0.43595   0.59443   0.21313  -0.02452
C          C       0.49379   0.58151   0.22540  -0.12242
C          C       0.54431   0.60461   0.20870  -0.02540
C          C       0.53665   0.63792   0.17978  -0.18488
C          C       0.49011   0.80055   0.11639  -0.03810
C          C       0.55342   0.87793   0.09468   0.24533
C          C       0.57265   0.89629   0.12610  -0.21778
C          C       0.61717   0.94058   0.12873  -0.00302
C          C       0.63641   0.96076   0.16223   0.54434
C          C       0.64330   0.96566   0.10046  -0.11892
C          C       0.62454   0.94542   0.06920  -0.02218
C          C       0.57961   0.90218   0.06618  -0.19580
C          C       0.65356   0.96804   0.03881   0.57744
C          C       0.19262   0.38117   0.02119   0.60034
C          C       0.80158   0.12324   0.08823   0.54707
C          C       0.32836   0.52081   0.00463   0.60394
C          C       0.38338   0.55604   0.01272  -0.02896
C          C       0.37701   0.60471   0.03397  -0.19570
C          C       0.42728   0.63889   0.04254   0.24892
C          C       0.46458   0.72235   0.07398  -0.04027
C          C       0.48419   0.62458   0.03005  -0.21878
C          C       0.49049   0.57525   0.00893  -0.01893
C          C       0.44028   0.54106  -0.00006  -0.12316
O          O       0.88586   0.95992   0.74417  -0.53812
O          O       0.82973   0.91089   0.78280  -0.54324
O          O       0.71203   0.00041   0.77267  -0.53947
O          O       0.76801   0.05380   0.73585  -0.53973
O          O       0.23976   0.41954   0.79094  -0.57002
O          O       0.29676   0.36073   0.75945  -0.52688
O          O       0.40601   0.22927   0.84147  -0.21514
O          O       0.56170   0.13741   0.81795  -0.21251
O          O       0.56039   0.21195   0.89536  -0.20936
O          O       0.64281   0.30929   0.75051  -0.54457
O          O       0.73006   0.27419   0.72715  -0.52824
O          O       0.63677   0.38179   0.95790  -0.51820
O          O       0.71802   0.34871   0.98816  -0.53830
O          O       0.74528   0.40167   0.75207  -1.00225
O          O       0.35502   0.93139   0.80142  -0.55822
O          O       0.27467   0.88685   0.82654  -0.54172
O          O       0.14546   0.86558   0.79285  -0.54696
O          O       0.11879   0.93759   0.75538  -0.53742
O          O       0.81338   0.51596   0.79993  -0.57628
O          O       0.73337   0.46727   0.82157  -0.52995
O          O       0.05439   0.98499   0.02359  -0.52831
O          O       0.09720   0.91398   0.99010  -0.53959
O          O       0.67832   0.50839   0.93628  -0.55669
O          O       0.72417   0.58002   0.96750  -0.55550
O          O       0.16054   0.02855   0.98503  -0.95785
O          O       0.29080   0.02987   0.96630  -0.57406
O          O       0.24544   0.94174   0.95253  -0.50555
O          O       0.86595   0.67385   0.87857  -0.21170
O          O       0.42492   0.09015   0.88082  -0.20933
O          O       0.97805   0.81571   0.86038  -0.20810
O          O       0.11774   0.56548   0.81162  -0.53560
O          O       0.17247   0.49439   0.83526  -0.52510
O          O       0.13939   0.55367   0.98976  -0.52748
O          O       0.19393   0.49099   0.95939  -0.57776
O          O       0.67611   0.06863   0.96620  -0.53435
O          O       0.72770   0.12535   0.00349  -0.54766
O          O       0.77926   0.96169   0.98131  -0.54490
O          O       0.83338   0.02330   0.01507  -0.53875
O          O       0.26651   0.42238   0.91385  -0.52841
O          O       0.32424   0.35420   0.93797  -0.53970
O          O       0.91534   0.81516   0.93618  -0.20799
O          O       0.00920   0.66347   0.91108  -0.20783
O          O       0.61415   0.04008   0.24417  -0.53818
O          O       0.67027   0.08910   0.28280  -0.54306
O          O       0.78798  -0.00041   0.27268  -0.53940
O          O       0.73199   0.94620   0.23585  -0.53955
O          O       0.26024   0.58046   0.29094  -0.56981
O          O       0.20324   0.63926   0.25945  -0.52750
O          O       0.09399   0.77072   0.34147  -0.21551
O          O       0.93830   0.86258   0.31796  -0.21278
O          O       0.93962   0.78805   0.39536  -0.20930
O          O       0.85719   0.69070   0.25052  -0.54426
O          O       0.76994   0.72581   0.22715  -0.52820
O          O       0.86323   0.61820   0.45790  -0.51807
O          O       0.78199   0.65128   0.48816  -0.53821
O          O       0.75472   0.59833   0.25207  -1.00219
O          O       0.14498   0.06861   0.30142  -0.55823
O          O       0.22533   0.11315   0.32654  -0.54166
O          O       0.35454   0.13442   0.29285  -0.54688
O          O       0.38121   0.06240   0.25538  -0.53750
O          O       0.68663   0.48404   0.29993  -0.57640
O          O       0.76663   0.53273   0.32157  -0.52993
O          O       0.44561   0.01501   0.52359  -0.52834
O          O       0.40280   0.08602   0.49010  -0.53973
O          O       0.82168   0.49161   0.43628  -0.55681
O          O       0.77584   0.41998   0.46750  -0.55497
O          O       0.33946   0.97144   0.48503  -0.95805
O          O       0.20920   0.97013   0.46630  -0.57384
O          O       0.25456   0.05825   0.45253  -0.50586
O          O       0.63406   0.32615   0.37857  -0.21180
O          O       0.07509   0.90984   0.38082  -0.20896
O          O       0.52195   0.18428   0.36038  -0.20801
O          O       0.38226   0.43452   0.31162  -0.53567
O          O       0.32753   0.50561   0.33526  -0.52523
O          O       0.36061   0.44633   0.48977  -0.52712
O          O       0.30607   0.50901   0.45939  -0.57792
O          O       0.82389   0.93137   0.46620  -0.53476
O          O       0.77230   0.87465   0.50349  -0.54778
O          O       0.72075   0.03831   0.48131  -0.54533
O          O       0.66663   0.97670   0.51507  -0.53868
O          O       0.23349   0.57761   0.41386  -0.52817
O          O       0.17576   0.64580   0.43797  -0.53948
O          O       0.58466   0.18484   0.43618  -0.20795
O          O       0.49080   0.33653   0.41108  -0.20762
O          O       0.11415   0.45992   0.75582  -0.53880
O          O       0.17027   0.41089   0.71720  -0.54281
O          O       0.28798   0.50041   0.72732  -0.53917
O          O       0.23199   0.55380   0.76415  -0.54048
O          O       0.76024   0.91954   0.70905  -0.56971
O          O       0.70324   0.86073   0.74054  -0.52789
O          O       0.59399   0.72927   0.65853  -0.21596
O          O       0.43830   0.63741   0.68204  -0.21240
O          O       0.43962   0.71195   0.60464  -0.20963
O          O       0.35719   0.80929   0.74948  -0.54430
O          O       0.26994   0.77418   0.77285  -0.52868
O          O       0.36323   0.88180   0.54210  -0.51850
O          O       0.28199   0.84872   0.51184  -0.53798
O          O       0.25472   0.90166   0.74793  -1.00202
O          O       0.64498   0.43139   0.69857  -0.55864
O          O       0.72533   0.38685   0.67345  -0.54146
O          O       0.85454   0.36558   0.70715  -0.54668
O          O       0.88121   0.43760   0.74461  -0.53783
O          O       0.18667   0.01594   0.70007  -0.57651
O          O       0.26667   0.96725   0.67841  -0.53016
O          O       0.94561   0.48499   0.47641  -0.52820
O          O       0.90280   0.41398   0.50989  -0.53998
O          O       0.32168   0.00839   0.56371  -0.55700
O          O       0.27584   0.08002   0.53249  -0.55463
O          O       0.83946   0.52855   0.51496  -0.95832
O          O       0.70921   0.52987   0.53370  -0.57363
O          O       0.75456   0.44174   0.54746  -0.50567
O          O       0.13407   0.17386   0.62143  -0.21240
O          O       0.57509   0.59015   0.61917  -0.20882
O          O       0.02195   0.31572   0.63961  -0.20754
O          O       0.88227   0.06548   0.68838  -0.53624
O          O       0.82753   0.99439   0.66474  -0.52496
O          O       0.86062   0.05367   0.51023  -0.52650
O          O       0.80607   0.99099   0.54060  -0.57795
O          O       0.32389   0.56863   0.53379  -0.53492
O          O       0.27230   0.62535   0.49651  -0.54734
O          O       0.22074   0.46169   0.51868  -0.54560
O          O       0.16663   0.52330   0.48493  -0.53848
O          O       0.73349   0.92238   0.58614  -0.52845
O          O       0.67576   0.85420   0.56203  -0.53883
O          O       0.08466   0.31516   0.56382  -0.20804
O          O       0.99080   0.16347   0.58892  -0.20710
O          O       0.38585   0.54008   0.25582  -0.53841
O          O       0.32973   0.58910   0.21720  -0.54298
O          O       0.21202   0.49959   0.22732  -0.53935
O          O       0.26801   0.44620   0.26415  -0.54011
O          O       0.73976   0.08046   0.20906  -0.56984
O          O       0.79676   0.13926   0.24054  -0.52753
O          O       0.90602   0.27072   0.15853  -0.21560
O          O       0.06170   0.36258   0.18204  -0.21268
O          O       0.06038   0.28805   0.10464  -0.20938
O          O       0.14281   0.19070   0.24948  -0.54419
O          O       0.23006   0.22581   0.27285  -0.52853
O          O       0.13677   0.11821   0.04210  -0.51832
O          O       0.21801   0.15128   0.01184  -0.53813
O          O       0.24528   0.09833   0.24793  -1.00214
O          O       0.85502   0.56861   0.19858  -0.55840
O          O       0.77467   0.61315   0.17345  -0.54182
O          O       0.64546   0.63442   0.20715  -0.54673
O          O       0.61879   0.56240   0.24461  -0.53761
O          O       0.31337   0.98404   0.20007  -0.57638
O          O       0.23337   0.03273   0.17843  -0.53024
O          O       0.55439   0.51501   0.97641  -0.52791
O          O       0.59721   0.58602   0.00990  -0.53988
O          O       0.17832   0.99161   0.06372  -0.55691
O          O       0.22416   0.91998   0.03250  -0.55483
O          O       0.66055   0.47144   0.01497  -0.95833
O          O       0.79080   0.47013   0.03370  -0.57357
O          O       0.74544   0.55825   0.04747  -0.50575
O          O       0.36595   0.82615   0.12143  -0.21209
O          O       0.92492   0.40984   0.11917  -0.20863
O          O       0.47805   0.68428   0.13962  -0.20772
O          O       0.61774   0.93452   0.18838  -0.53591
O          O       0.67247   0.00561   0.16474  -0.52501
O          O       0.63939   0.94633   0.01023  -0.52687
O          O       0.69393   0.00901   0.04060  -0.57798
O          O       0.17611   0.43137   0.03379  -0.53472
O          O       0.22770   0.37465   0.99651  -0.54738
O          O       0.27926   0.53831   0.01869  -0.54532
O          O       0.33337   0.47670   0.98492  -0.53838
O          O       0.76652   0.07761   0.08614  -0.52845
O          O       0.82424   0.14580   0.06203  -0.53918
O          O       0.41534   0.68484   0.06382  -0.20800
O          O       0.50920   0.83653   0.08892  -0.20741

