data_crystal

_cell_length_a 10.86375
_cell_length_b 10.87109
_cell_length_c 10.43268
_cell_angle_alpha 90.68588
_cell_angle_beta  90.39825
_cell_angle_gamma 90.30709

_symmetry_space_group_name_	'P 1'
_symmetry_space_group_name_H-M	'P 1'

loop_
_symmetry_equiv_pos_as_xyz
  x,y,z

loop_
_atom_site_label
_atom_site_type_symbol
_atom_site_fract_x
_atom_site_fract_y
_atom_site_fract_z
_atom_site_charge
C 	C 	0.49618 0.26149 0.49893 0.36700
C 	C 	0.50386 0.73850 0.50107 0.36700
C 	C 	0.87197 0.49463 0.50167 -0.09100
C 	C 	0.12802 0.50526 0.49832 -0.09100
C 	C 	0.93980 0.45255 0.60836 0.11900
C 	C 	0.06018 0.54731 0.39161 0.11900
C 	C 	0.27527 0.20544 0.12640 -0.18800
C 	C 	0.72561 0.79624 0.87390 -0.18800
C 	C 	0.31345 0.16140 0.24558 0.37600
C 	C 	0.68729 0.84003 0.75466 0.37600
C 	C 	0.43258 0.11353 0.26065 -0.13000
C 	C 	0.56763 0.88648 0.73922 -0.13000
C 	C 	0.51233 0.11039 0.15526 0.04000
C 	C 	0.48743 0.88834 0.84426 0.04000
C 	C 	0.47378 0.15553 0.03671 -0.09000
C 	C 	0.52610 0.84339 0.96285 -0.09000
C 	C 	0.35537 0.20292 0.02224 0.06600
C 	C 	0.64507 0.79748 0.97770 0.06600
C 	C 	0.47880 0.93180 0.38803 -0.02600
C 	C 	0.52133 0.06819 0.61192 -0.02600
C 	C 	0.50583 0.87210 0.50282 -0.08900
C 	C 	0.49424 0.12790 0.49715 -0.08900
C 	C 	0.26157 0.50352 0.49939 0.36500
C 	C 	0.73843 0.49645 0.50061 0.36400
C 	C 	0.52906 0.94119 0.61614 0.11400
C 	C 	0.47105 0.05881 0.38380 0.11300
C 	C 	0.50001 0.50001 0.07196 0.07000
C 	C 	0.49998 0.50000 0.92804 0.07000
C 	C 	0.22675 0.76960 0.17553 -0.08100
C 	C 	0.77321 0.23044 0.82467 -0.08100
C 	C 	0.17540 0.71737 0.28491 0.04900
C 	C 	0.82500 0.28235 0.71532 0.04800
C 	C 	0.11801 0.60141 0.27702 -0.12400
C 	C 	0.88189 0.39858 0.72297 -0.12300
C 	C 	0.11302 0.53841 0.15866 0.37300
C 	C 	0.88593 0.46216 0.84102 0.37300
C 	C 	0.16691 0.58986 0.05028 -0.17000
C 	C 	0.83166 0.41101 0.94935 -0.17000
C 	C 	0.22296 0.70564 0.05849 0.06500
C 	C 	0.77608 0.29496 0.94140 0.06500
C 	C 	0.93271 0.54052 0.39439 -0.00700
C 	C 	0.06727 0.45935 0.60560 -0.00700
Cu	Cu	0.50000 0.50000 0.62530 0.92500
Cu	Cu	0.50000 0.50000 0.37470 0.92500
H 	H 	0.26282 0.74593 0.97390 0.02800
H 	H 	0.73583 0.25495 0.02594 0.02800
H 	H 	0.60376 0.07214 0.16475 0.03200
H 	H 	0.39557 0.92552 0.83447 0.03200
H 	H 	0.53498 0.15225 0.95549 0.05400
H 	H 	0.46458 0.84574 0.04383 0.05400
H 	H 	0.46050 0.87924 0.30099 0.05700
H 	H 	0.53971 0.12074 0.69896 0.05700
H 	H 	0.26884 0.85993 0.18125 0.06300
H 	H 	0.73143 0.13995 0.81913 0.06300
H 	H 	0.17917 0.76756 0.37520 0.04500
H 	H 	0.82189 0.23175 0.62525 0.04500
H 	H 	0.16455 0.54038 0.95962 0.12900
H 	H 	0.83328 0.46094 0.03976 0.12900
H 	H 	0.88064 0.57448 0.31317 0.07400
H 	H 	0.11933 0.42541 0.68684 0.07400
H 	H 	0.32542 0.23691 0.93010 0.02800
H 	H 	0.67512 0.76369 0.06989 0.02800
H 	H 	0.18296 0.23993 0.11412 0.15100
H 	H 	0.81836 0.76300 0.88650 0.15100
N 	N 	0.50001 0.49999 0.18641 -0.18900
N 	N 	0.49999 0.50001 0.81359 -0.18900
O 	O 	0.49999 0.31965 0.60581 -0.38400
O 	O 	0.50001 0.68035 0.39419 -0.38400
O 	O 	0.49999 0.31964 0.39419 -0.37400
O 	O 	0.50001 0.68036 0.60581 -0.37400
O 	O 	0.31964 0.50001 0.60581 -0.37800
O 	O 	0.68036 0.49999 0.39419 -0.37800
O 	O 	0.31965 0.50001 0.39419 -0.37000
O 	O 	0.68035 0.49999 0.60581 -0.37000
F 	F 	0.05620 0.42735 0.14869 -0.45600
F 	F 	0.94211 0.57358 0.85070 -0.45600
F 	F 	0.23385 0.16307 0.34529 -0.44200
F 	F 	0.76730 0.83964 0.65529 -0.44200
