data_crystal

_cell_length_a 11.18044
_cell_length_b 11.04941
_cell_length_c 18.78409
_cell_angle_alpha 90.01891
_cell_angle_beta  90.21631
_cell_angle_gamma 61.80975

_symmetry_space_group_name_	'P 1'
_symmetry_space_group_name_H-M	'P 1'

loop_
_symmetry_equiv_pos_as_xyz
  x,y,z

loop_
_atom_site_label
_atom_site_type_symbol
_atom_site_fract_x
_atom_site_fract_y
_atom_site_fract_z
_atom_site_charge
C 	C 	0.23686 0.64503 0.60956 0.39900
C 	C 	0.75492 0.51436 0.79714 -0.05500
C 	C 	0.69405 0.66970 0.81502 -0.04400
C 	C 	0.66576 0.63800 0.67929 -0.07400
C 	C 	0.74916 0.71479 0.68913 -0.04300
C 	C 	0.73933 0.49607 0.71765 -0.04300
C 	C 	0.68741 0.17113 0.82748 -0.10800
C 	C 	0.79986 0.15035 0.78449 0.05400
C 	C 	0.78677 0.14987 0.70911 0.07100
C 	C 	0.54479 0.22985 0.72337 0.01500
C 	C 	0.55948 0.22193 0.79604 0.00800
C 	C 	0.65009 0.61579 0.60289 0.34900
C 	C 	0.92362 0.13280 0.81371 -0.15600
C 	C 	0.03357 0.10591 0.76995 0.07200
C 	C 	0.02388 0.09378 0.69687 0.08900
C 	C 	0.90317 0.11148 0.66672 -0.17100
C 	C 	0.65699 0.19104 0.67862 -0.12600
C 	C 	0.18030 0.66614 0.83502 -0.10000
C 	C 	0.18443 0.55241 0.79754 0.04600
C 	C 	0.17636 0.55626 0.72190 0.05600
C 	C 	0.20289 0.76198 0.72410 0.00900
C 	C 	0.19618 0.76568 0.79726 -0.00400
C 	C 	0.62506 0.23249 0.60377 0.40200
C 	C 	0.19607 0.43504 0.83330 -0.03800
C 	C 	0.18316 0.33268 0.79655 -0.01600
C 	C 	0.15681 0.34571 0.72377 -0.00400
C 	C 	0.15283 0.45656 0.68656 -0.04800
C 	C 	0.19280 0.65925 0.68473 -0.11400
C 	C 	0.64584 0.65590 0.16492 -0.09300
C 	C 	0.72282 0.53148 0.20198 0.04200
C 	C 	0.75121 0.54396 0.27387 0.05200
C 	C 	0.56638 0.76701 0.28064 0.04800
C 	C 	0.55662 0.76849 0.20493 -0.00500
C 	C 	0.28970 0.62478 0.39259 0.27800
C 	C 	0.82060 0.41888 0.16587 -0.00200
C 	C 	0.95147 0.39882 0.17588 -0.12800
C 	C 	0.97909 0.46017 0.23490 -0.15500
C 	C 	0.88565 0.51089 0.28967 -0.01000
C 	C 	0.65189 0.64513 0.31497 -0.12900
C 	C 	0.65328 0.17468 0.17151 -0.12200
C 	C 	0.52725 0.22063 0.20238 0.06700
C 	C 	0.51809 0.20991 0.27620 0.03100
C 	C 	0.75401 0.16221 0.28694 -0.04000
C 	C 	0.76447 0.15315 0.21375 0.04400
C 	C 	0.64004 0.61918 0.39109 0.36600
C 	C 	0.41022 0.27280 0.16002 -0.05800
C 	C 	0.28886 0.29958 0.18884 -0.01700
C 	C 	0.28230 0.26599 0.25930 -0.03900
C 	C 	0.39372 0.22421 0.30290 -0.03400
C 	C 	0.63067 0.19207 0.31921 -0.07700
C 	C 	0.16484 0.70515 0.17919 -0.09200
C 	C 	0.15631 0.82470 0.21768 0.09500
C 	C 	0.21066 0.79393 0.28776 0.04500
C 	C 	0.31894 0.55304 0.26459 0.00400
C 	C 	0.28245 0.58420 0.19269 -0.03100
C 	C 	0.61027 0.23689 0.39332 0.39500
C 	C 	0.11306 0.96684 0.19126 -0.19300
C 	C 	0.11232 0.06441 0.23869 0.09200
C 	C 	0.17597 0.02785 0.30304 0.04800
C 	C 	0.23312 0.89467 0.32373 -0.10000
C 	C 	0.26078 0.65599 0.31524 -0.06000
C 	C 	0.70275 0.10426 0.89729 0.37600
C 	C 	0.72125 0.68577 0.89041 0.34900
C 	C 	0.11827 0.70594 0.90619 0.39300
C 	C 	0.67707 0.10868 0.10236 0.38500
C 	C 	0.69486 0.68623 0.09598 0.36200
C 	C 	0.53897 0.73989 0.79529 -0.09900
C 	C 	0.08605 0.71948 0.11441 0.42300
C 	C 	0.52427 0.71994 0.71497 -0.02800
C 	C 	0.76951 0.72986 0.76911 -0.05900
Cr	Cr	0.39294 0.39795 0.50223 1.52100
Cr	Cr	0.39840 0.70850 0.50126 1.51500
Cr	Cr	0.70864 0.39353 0.49646 1.52400
Cr	Cr	0.93788 0.93832 0.00762 1.44800
Cr	Cr	0.62556 0.93722 0.99451 1.51500
Cr	Cr	0.93808 0.62501 0.00119 1.47500
H 	H 	0.84215 0.43196 0.69486 0.02500
H 	H 	0.88014 0.67437 0.78133 0.01400
H 	H 	0.84979 0.65700 0.66303 0.01000
H 	H 	0.44296 0.26889 0.70242 0.04800
H 	H 	0.93560 0.14638 0.86968 0.05500
H 	H 	0.47048 0.24623 0.82779 0.05800
H 	H 	0.12841 0.08983 0.79302 0.05100
H 	H 	0.11084 0.06924 0.66332 0.03300
H 	H 	0.90299 0.09408 0.61015 0.06300
H 	H 	0.22290 0.83794 0.69860 0.02400
H 	H 	0.49523 0.68217 0.82453 0.06400
H 	H 	0.22029 0.41861 0.88942 0.05600
H 	H 	0.19854 0.85058 0.82441 0.04800
H 	H 	0.19342 0.24371 0.82523 0.06500
H 	H 	0.14287 0.26819 0.69553 0.04500
H 	H 	0.12906 0.46381 0.63044 0.06300
H 	H 	0.79574 0.38755 0.11566 0.04000
H 	H 	0.02147 0.35062 0.13310 0.12400
H 	H 	0.06446 0.47934 0.23745 0.13500
H 	H 	0.46800 0.66044 0.70826 0.03700
H 	H 	0.91116 0.54931 0.33735 0.01400
H 	H 	0.41106 0.29553 0.10400 0.06300
H 	H 	0.86084 0.12240 0.19005 0.03000
H 	H 	0.20493 0.33869 0.15337 0.03700
H 	H 	0.19179 0.27215 0.28162 0.05800
H 	H 	0.38133 0.18977 0.35462 0.06000
H 	H 	0.40816 0.46200 0.27997 0.04300
H 	H 	0.46366 0.81977 0.68736 0.02900
H 	H 	0.07999 0.16764 0.22251 0.05100
H 	H 	0.18797 0.10116 0.33629 0.04500
H 	H 	0.30362 0.87354 0.36626 0.03600
H 	H 	0.73521 0.83932 0.78242 0.02500
H 	H 	0.69657 0.81756 0.66339 0.01400
H 	H 	0.86499 0.45739 0.81057 0.03000
H 	H 	0.70334 0.46714 0.82855 0.04400
H 	H 	0.68036 0.43935 0.71024 0.04200
O 	O 	0.50734 0.25569 0.58143 -0.46800
O 	O 	0.52451 0.69582 0.42405 -0.51200
O 	O 	0.73637 0.50426 0.41481 -0.46700
O 	O 	0.69122 0.27727 0.42218 -0.49800
O 	O 	0.49999 0.49999 0.49998 -0.73300
O 	O 	0.08957 0.82545 0.93059 -0.41100
O 	O 	0.81870 0.05426 0.92986 -0.47600
O 	O 	0.60631 0.07701 0.91552 -0.41300
O 	O 	0.64673 0.80654 0.91756 -0.49100
O 	O 	0.83729 0.59324 0.91524 -0.48000
O 	O 	0.06532 0.63531 0.93158 -0.44900
O 	O 	0.28036 0.52738 0.57891 -0.50500
O 	O 	0.06847 0.82862 0.09185 -0.45000
O 	O 	0.79915 0.05720 0.07935 -0.48800
O 	O 	0.58522 0.08018 0.07677 -0.44500
O 	O 	0.62717 0.80948 0.06705 -0.52000
O 	O 	0.81620 0.59641 0.07650 -0.49100
O 	O 	0.04577 0.63824 0.08107 -0.45500
O 	O 	0.83384 0.83352 0.00111 -0.79900
O 	O 	0.26060 0.73961 0.58458 -0.47400
O 	O 	0.53237 0.69505 0.57383 -0.51400
O 	O 	0.74485 0.50343 0.57638 -0.48100
O 	O 	0.69908 0.27650 0.57195 -0.52500
O 	O 	0.49886 0.25652 0.41986 -0.47000
O 	O 	0.27249 0.52815 0.42914 -0.44900
O 	O 	0.25211 0.74044 0.42301 -0.42200
C 	C 	0.45422 0.89039 0.81666 0.28400
O 	O 	0.37655 0.91857 0.86688 -0.27200
O 	O 	0.46109 0.99817 0.78119 -0.34100
H 	H 	0.52281 0.96898 0.73849 0.13100
C 	C 	0.53106 0.89680 0.32068 -0.07400
C 	C 	0.66045 0.90224 0.34289 -0.13000
H 	H 	0.71010 0.91884 0.29556 0.03300
H 	H 	0.63440 0.98421 0.38275 0.02800
H 	H 	0.73485 0.80688 0.36991 0.04400
H 	H 	0.46762 0.98306 0.28635 0.01200
H 	H 	0.47270 0.90790 0.36944 0.02600
C 	C 	0.42549 0.85688 0.16971 0.01600
C 	C 	0.40717 0.99359 0.14430 -0.35900
H 	H 	0.48496 0.01370 0.16943 0.17700
H 	H 	0.41058 0.99795 0.08548 0.06100
H 	H 	0.30524 0.07335 0.15908 0.15400
H 	H 	0.40531 0.80044 0.12641 0.05800
H 	H 	0.35341 0.87506 0.21042 0.02100
C 	C 	0.87312 0.13518 0.33035 0.27700
O 	O 	0.90753 0.22456 0.33630 -0.28500
O 	O 	0.93131 0.01780 0.37324 -0.29500
H 	H 	0.99947 0.01917 0.40851 0.13100
C 	C 	0.10444 0.02191 0.11629 0.41000
O 	O 	0.01014 0.13291 0.09941 -0.26500
O 	O 	0.20330 0.94820 0.06530 -0.37600
H 	H 	0.18495 0.99737 0.01776 0.12300
C 	C 	0.38847 0.53660 0.13654 0.26900
O 	O 	0.50815 0.47978 0.15331 -0.24400
O 	O 	0.35258 0.55975 0.06448 -0.30400
H 	H 	0.43442 0.52352 0.03198 0.14900
