data_crystal

_cell_length_a 7.00077
_cell_length_b 14.12599
_cell_length_c 17.88986
_cell_angle_alpha 111.98734
_cell_angle_beta  95.84509
_cell_angle_gamma 90.40377

_symmetry_space_group_name_	'P 1'
_symmetry_space_group_name_H-M	'P 1'

loop_
_symmetry_equiv_pos_as_xyz
  x,y,z

loop_
_atom_site_label
_atom_site_type_symbol
_atom_site_fract_x
_atom_site_fract_y
_atom_site_fract_z
_atom_site_charge
O 	O 	0.48456 0.54453 0.41433 -0.48900
O 	O 	0.19704 0.63881 0.58508 -0.49300
O 	O 	0.02680 0.45547 0.58567 -0.50100
C 	C 	0.37521 0.67781 0.61035 0.35600
O 	O 	0.15500 0.55615 0.41494 -0.50200
O 	O 	0.98445 0.37222 0.41432 -0.46600
C 	C 	0.31759 0.56468 0.38649 0.38800
O 	O 	0.52690 0.62778 0.58568 -0.47800
O 	O 	0.33917 0.43975 0.49999 -0.63600
V 	V 	0.06435 0.51118 0.50000 1.79700
O 	O 	0.65488 0.36119 0.41492 -0.47900
C 	C 	0.81698 0.32413 0.38710 0.37100
O 	O 	0.69693 0.44385 0.58506 -0.48200
C 	C 	0.87262 0.41742 0.60225 0.37600
V 	V 	0.56434 0.48882 0.50000 1.80400
O 	O 	0.83939 0.56025 0.50001 -0.63600
C 	C 	0.04276 0.85733 0.81867 -0.07000
C 	C 	0.90824 0.37661 0.66951 -0.10900
C 	C 	0.95472 0.81378 0.67369 -0.03100
C 	C 	0.02482 0.78730 0.73887 -0.01400
C 	C 	0.01592 0.95919 0.83071 -0.02600
C 	C 	0.97653 0.99092 0.76350 0.00700
C 	C 	0.93325 0.91596 0.68517 0.02800
C 	C 	0.97929 0.09449 0.77207 0.01800
C 	C 	0.92495 0.12483 0.70479 0.01500
C 	C 	0.87035 0.04661 0.62867 -0.03400
C 	C 	0.87707 0.94387 0.61901 -0.04600
C 	C 	0.03917 0.16850 0.84716 -0.04200
C 	C 	0.02765 0.26821 0.85980 -0.08200
C 	C 	0.99019 0.30368 0.79677 0.07000
C 	C 	0.93375 0.23208 0.71694 -0.02900
C 	C 	0.01055 0.40930 0.81359 -0.05400
C 	C 	0.97734 0.44512 0.74872 0.09900
C 	C 	0.88842 0.27086 0.65419 0.02000
H 	H 	0.84063 0.88565 0.55899 0.05100
H 	H 	0.84134 0.22046 0.59269 0.04100
H 	H 	0.05070 0.31446 0.92233 0.05600
H 	H 	0.92888 0.75533 0.61343 0.06400
H 	H 	0.07472 0.71292 0.72624 0.03800
H 	H 	0.02385 0.01060 0.89316 0.04600
H 	H 	0.82643 0.06267 0.57527 0.04900
H 	H 	0.09196 0.15289 0.89977 0.04200
H 	H 	0.10159 0.22692 0.30082 0.03000
H 	H 	0.83556 0.03566 0.18783 0.05700
C 	C 	0.13386 0.03671 0.18288 -0.17400
C 	C 	0.97124 0.07775 0.21480 0.03400
C 	C 	0.81141 0.21767 0.32323 -0.12900
C 	C 	0.96919 0.17959 0.28380 0.02800
H 	H 	0.27081 0.07859 0.20723 0.08900
C 	C 	0.41589 0.77867 0.68072 -0.09800
C 	C 	0.54091 0.46178 0.85471 -0.07200
C 	C 	0.53784 0.86569 0.82262 -0.07300
C 	C 	0.47673 0.77635 0.75669 0.03500
C 	C 	0.41192 0.87543 0.67325 0.01000
C 	C 	0.46556 0.96963 0.74215 -0.02800
C 	C 	0.53364 0.96140 0.81610 0.05700
C 	C 	0.45697 0.07118 0.74044 0.01300
C 	C 	0.52831 0.16280 0.81008 0.00700
C 	C 	0.61321 0.14433 0.87776 -0.03100
C 	C 	0.60566 0.04817 0.88255 -0.05400
C 	C 	0.37349 0.08261 0.67095 -0.03500
C 	C 	0.36316 0.17652 0.66606 -0.04700
C 	C 	0.43929 0.26659 0.72913 0.04100
C 	C 	0.51592 0.26607 0.80661 -0.01800
C 	C 	0.42549 0.35812 0.71541 -0.04800
C 	C 	0.45647 0.45111 0.77887 0.01000
C 	C 	0.56797 0.36853 0.87253 0.00400
H 	H 	0.66858 0.04070 0.93791 0.07200
H 	H 	0.41984 0.51940 0.76763 0.03400
H 	H 	0.27993 0.17702 0.61208 0.06100
H 	H 	0.58907 0.86003 0.87955 0.08600
H 	H 	0.47547 0.70442 0.76507 0.02500
H 	H 	0.37092 0.87415 0.61318 0.03000
H 	H 	0.69830 0.20067 0.92694 0.05700
H 	H 	0.30536 0.01980 0.61929 0.04000
H 	H 	0.33504 0.66466 0.19284 0.03900
H 	H 	0.61260 0.58885 0.30710 0.04600
C 	C 	0.31444 0.60117 0.31827 -0.16500
C 	C 	0.47545 0.60907 0.28431 0.01100
H 	H 	0.77100 0.63528 0.20651 0.08300
C 	C 	0.63399 0.65480 0.18303 -0.17100
C 	C 	0.47242 0.64509 0.21599 0.01300
H 	H 	0.17763 0.62118 0.29502 0.07700
O 	O 	0.42160 0.63043 0.91701 -0.43200
O 	O 	0.79384 0.70219 0.08763 -0.51200
O 	O 	0.96401 0.88617 0.08819 -0.47900
C 	C 	0.63118 0.69297 0.11579 0.38100
O 	O 	0.75146 0.61951 0.91750 -0.43600
O 	O 	0.92133 0.80290 0.91684 -0.43100
C 	C 	0.57715 0.57532 0.91152 0.30100
O 	O 	0.46429 0.71370 0.08835 -0.51000
O 	O 	0.60920 0.81852 0.00263 -0.69600
V 	V 	0.88414 0.74719 0.00253 1.77900
O 	O 	0.25115 0.81463 0.91734 -0.44700
C 	C 	0.07475 0.82319 0.88865 0.33000
O 	O 	0.29353 0.89731 0.08747 -0.49400
C 	C 	0.13112 0.93383 0.11545 0.36100
V 	V 	0.38407 0.76971 0.00237 1.77600
O 	O 	0.10918 0.69819 0.00246 -0.71700
C 	C 	0.03123 0.48458 0.90143 -0.10100
C 	C 	0.19151 0.48068 0.96367 -0.02500
H 	H 	0.13268 0.46613 0.01407 -0.03800
H 	H 	0.27888 0.41993 0.93240 0.05400
H 	H 	0.28230 0.55097 0.99334 0.08700
H 	H 	0.04568 0.55796 0.90079 0.08100
H 	H 	0.89954 0.47893 0.92672 0.08600
C 	C 	0.62904 0.15530 0.30803 0.15600
H 	H 	0.49387 0.19287 0.31680 0.01100
O 	O 	0.62817 0.06317 0.29113 -0.19800
C 	C 	0.63624 0.38584 0.96196 0.04600
C 	C 	0.50453 0.34420 0.00791 -0.36400
H 	H 	0.43385 0.40741 0.05244 0.07600
H 	H 	0.39309 0.28755 0.96648 0.15200
H 	H 	0.59127 0.30775 0.04435 0.07300
H 	H 	0.77997 0.35711 0.96703 0.03800
H 	H 	0.65889 0.46879 0.99887 0.04900
C 	C 	0.38542 0.36375 0.63448 0.12400
H 	H 	0.34567 0.43613 0.63196 0.01800
O 	O 	0.41646 0.29429 0.57198 -0.18600
C 	C 	0.00645 0.55695 0.76050 -0.11000
C 	C 	0.81388 0.60193 0.74604 -0.12100
H 	H 	0.80567 0.61965 0.69065 0.06900
H 	H 	0.69337 0.54785 0.73594 0.07400
H 	H 	0.78952 0.67125 0.79772 0.07500
H 	H 	0.08929 0.60934 0.81634 0.05600
H 	H 	0.10602 0.56038 0.71769 0.06100
