data_crystal

_cell_length_a 19.80738
_cell_length_b 11.28812
_cell_length_c 18.70904
_cell_angle_alpha 90.04156
_cell_angle_beta  90.75051
_cell_angle_gamma 90.06509

_symmetry_space_group_name_	'P 1'
_symmetry_space_group_name_H-M	'P 1'

loop_
_symmetry_equiv_pos_as_xyz
  x,y,z

loop_
_atom_site_label
_atom_site_type_symbol
_atom_site_fract_x
_atom_site_fract_y
_atom_site_fract_z
_atom_site_charge
C 	C 	0.76158 0.52197 0.63859 0.33900
C 	C 	0.23951 0.52454 0.35998 0.34300
C 	C 	0.26158 0.02197 0.63859 0.36400
C 	C 	0.73951 0.02454 0.35998 0.36800
C 	C 	0.81403 0.12910 0.44813 -0.04900
C 	C 	0.19167 0.13245 0.54943 -0.05200
C 	C 	0.31403 0.62910 0.44813 -0.05000
C 	C 	0.69167 0.63245 0.54943 -0.05300
C 	C 	0.75026 0.05670 0.43546 -0.05000
C 	C 	0.25290 0.05379 0.56209 -0.04500
C 	C 	0.25026 0.55670 0.43546 -0.06200
C 	C 	0.75290 0.55379 0.56209 -0.05700
C 	C 	0.76270 0.09033 0.57309 -0.03400
C 	C 	0.23829 0.08778 0.42473 -0.04000
C 	C 	0.26270 0.59033 0.57309 -0.05600
C 	C 	0.73829 0.58778 0.42473 -0.06300
C 	C 	0.76180 0.95685 0.55973 -0.08000
C 	C 	0.23284 0.95540 0.43740 -0.07100
C 	C 	0.26180 0.45685 0.55973 -0.05800
C 	C 	0.73284 0.45540 0.43740 -0.04900
C 	C 	0.82447 0.13778 0.52984 -0.05900
C 	C 	0.17911 0.13891 0.46863 -0.05500
C 	C 	0.32447 0.63778 0.52984 -0.05400
C 	C 	0.67911 0.63891 0.46863 -0.05100
C 	C 	0.00837 0.21114 0.46121 -0.06100
C 	C 	0.99926 0.20858 0.54215 -0.03400
C 	C 	0.50837 0.71114 0.46121 -0.05700
C 	C 	0.49926 0.70858 0.54215 -0.03800
C 	C 	0.07846 0.40153 0.48903 -0.10000
C 	C 	0.94227 0.41129 0.52394 -0.07400
C 	C 	0.57846 0.90153 0.48903 -0.10000
C 	C 	0.44227 0.91129 0.52394 -0.09700
C 	C 	0.96018 0.41081 0.44366 0.04700
C 	C 	0.05872 0.40188 0.56853 0.05800
C 	C 	0.46018 0.91081 0.44366 0.02600
C 	C 	0.55873 0.90187 0.56853 0.05500
C 	C 	0.02601 0.33862 0.43698 -0.04800
C 	C 	0.99165 0.33670 0.57169 -0.09000
C 	C 	0.52601 0.83862 0.43698 -0.04400
C 	C 	0.49165 0.83670 0.57169 -0.08600
C 	C 	0.81926 0.03069 0.04865 -0.02100
C 	C 	0.18744 0.01049 0.95543 -0.02100
C 	C 	0.31926 0.53069 0.04865 -0.05000
C 	C 	0.68744 0.51049 0.95543 -0.05000
C 	C 	0.77479 0.12156 0.64897 0.33900
C 	C 	0.22578 0.12009 0.34985 0.34500
C 	C 	0.27479 0.62156 0.64897 0.34200
C 	C 	0.72578 0.62009 0.34985 0.34700
C 	C 	0.82198 0.03653 0.96842 -0.03100
C 	C 	0.18466 0.01646 0.03560 -0.02900
C 	C 	0.32198 0.53653 0.96842 -0.05300
C 	C 	0.68466 0.51646 0.03560 -0.05200
C 	C 	0.69275 0.01303 0.03050 -0.03200
C 	C 	0.31773 0.03408 0.97038 -0.02600
C 	C 	0.19275 0.51303 0.03050 -0.06200
C 	C 	0.81773 0.53409 0.97038 -0.05500
C 	C 	0.74462 0.20470 0.06123 -0.04900
C 	C 	0.24515 0.20033 0.93780 -0.04600
C 	C 	0.24462 0.70470 0.06123 -0.05200
C 	C 	0.74515 0.70033 0.93780 -0.04900
C 	C 	0.74908 0.07273 0.07553 -0.06600
C 	C 	0.25333 0.06823 0.92595 -0.07100
C 	C 	0.24908 0.57273 0.07553 -0.05100
C 	C 	0.75333 0.56823 0.92595 -0.05600
C 	C 	0.76102 0.10610 0.93639 -0.06200
C 	C 	0.23964 0.10227 0.06462 -0.06000
C 	C 	0.26102 0.60610 0.93639 -0.05400
C 	C 	0.73964 0.60227 0.06462 -0.05200
C 	C 	0.69970 0.02744 0.94841 -0.02700
C 	C 	0.30785 0.04430 0.05216 -0.02800
C 	C 	0.19970 0.52744 0.94841 -0.05000
C 	C 	0.80785 0.54430 0.05216 -0.05200
C 	C 	0.74605 0.22247 0.97900 -0.05700
C 	C 	0.23789 0.21769 0.01956 -0.06300
C 	C 	0.24605 0.72247 0.97900 -0.05600
C 	C 	0.73789 0.71769 0.01956 -0.06400
C 	C 	0.99486 0.47977 0.04247 -0.04700
C 	C 	0.99130 0.47992 0.96158 -0.04900
C 	C 	0.49486 0.97977 0.04247 -0.09400
C 	C 	0.49130 0.97993 0.96158 -0.09500
C 	C 	0.06672 0.29630 0.02798 -0.05900
C 	C 	0.93785 0.27018 0.97247 -0.05300
C 	C 	0.56672 0.79630 0.02798 -0.06200
C 	C 	0.43785 0.77018 0.97247 -0.05500
C 	C 	0.94559 0.27875 0.05448 -0.04900
C 	C 	0.05762 0.29878 0.94581 -0.05000
C 	C 	0.44559 0.77875 0.05448 -0.05300
C 	C 	0.55762 0.79878 0.94581 -0.05000
C 	C 	0.96627 0.34277 0.64438 0.36800
C 	C 	0.05212 0.34507 0.36274 0.29400
C 	C 	0.46627 0.84277 0.64438 0.36700
C 	C 	0.55212 0.84507 0.36274 0.29300
C 	C 	0.00826 0.35206 0.07029 -0.06100
C 	C 	0.98822 0.35141 0.93128 -0.06100
C 	C 	0.50826 0.85206 0.07029 -0.05000
C 	C 	0.48822 0.85140 0.93128 -0.05400
C 	C 	0.76127 0.53241 0.84938 0.33100
C 	C 	0.23993 0.53576 0.15202 0.32600
C 	C 	0.26127 0.03241 0.84938 0.36500
C 	C 	0.73993 0.03576 0.15202 0.35900
C 	C 	0.77487 0.13377 0.85919 0.33500
C 	C 	0.22554 0.13218 0.14141 0.33600
C 	C 	0.27487 0.63377 0.85919 0.32900
C 	C 	0.72554 0.63218 0.14141 0.33000
C 	C 	0.96802 0.35331 0.85438 0.34900
C 	C 	0.02998 0.35316 0.14690 0.34600
C 	C 	0.46802 0.85331 0.85438 0.34500
C 	C 	0.52997 0.85316 0.14690 0.34200
C 	C 	0.69216 0.13539 0.46361 -0.04800
C 	C 	0.31322 0.12446 0.53318 -0.05300
C 	C 	0.19216 0.63540 0.46362 -0.04900
C 	C 	0.81322 0.62446 0.53318 -0.05400
C 	C 	0.69408 0.13850 0.54473 -0.05900
C 	C 	0.30851 0.13221 0.45197 -0.05400
C 	C 	0.19408 0.63850 0.54473 -0.05400
C 	C 	0.80851 0.63221 0.45197 -0.04900
C 	C 	0.76240 0.93836 0.47837 -0.06500
C 	C 	0.24121 0.93599 0.51869 -0.07400
C 	C 	0.26240 0.43836 0.47837 -0.04900
C 	C 	0.74121 0.43599 0.51869 -0.05800
Cr	Cr	0.88569 0.49286 0.74531 1.51000
Cr	Cr	0.11431 0.49286 0.25469 1.50800
Cr	Cr	0.38569 0.99286 0.74531 1.50200
Cr	Cr	0.61431 0.99286 0.25469 1.50000
Cr	Cr	0.72988 0.33227 0.74819 1.51200
Cr	Cr	0.27012 0.33227 0.25181 1.51300
Cr	Cr	0.22988 0.83227 0.74819 1.51100
Cr	Cr	0.77012 0.83227 0.25181 1.51100
Cr	Cr	0.88812 0.17859 0.75301 1.51300
Cr	Cr	0.11188 0.17859 0.24699 1.51100
Cr	Cr	0.38812 0.67859 0.75301 1.51200
Cr	Cr	0.61188 0.67859 0.24699 1.51000
H 	H 	0.64231 0.11371 0.44229 0.04100
H 	H 	0.36051 0.08598 0.55005 0.04200
H 	H 	0.14231 0.61371 0.44229 0.03300
H 	H 	0.86051 0.58599 0.55005 0.03700
H 	H 	0.86613 0.07592 0.54230 0.04800
H 	H 	0.13547 0.08081 0.45902 0.04600
H 	H 	0.36612 0.57592 0.54230 0.04100
H 	H 	0.63547 0.58081 0.45902 0.04000
H 	H 	0.81397 0.90654 0.46589 0.03600
H 	H 	0.19240 0.90045 0.53660 0.03900
H 	H 	0.31397 0.40654 0.46589 0.03900
H 	H 	0.69240 0.40045 0.53660 0.04200
H 	H 	0.80636 0.91331 0.58518 0.03400
H 	H 	0.18236 0.92181 0.41983 0.03100
H 	H 	0.30636 0.41331 0.58518 0.03700
H 	H 	0.68236 0.42181 0.41983 0.03400
H 	H 	0.04390 0.14524 0.44319 0.04000
H 	H 	0.95605 0.15495 0.55585 0.03500
H 	H 	0.54390 0.64524 0.44319 0.03700
H 	H 	0.45605 0.65495 0.55585 0.03400
H 	H 	0.96109 0.18006 0.43513 0.04800
H 	H 	0.04151 0.15974 0.56677 0.02900
H 	H 	0.46109 0.68006 0.43513 0.04500
H 	H 	0.54150 0.65974 0.56677 0.02800
H 	H 	0.63019 0.87764 0.48379 0.04600
H 	H 	0.38965 0.88911 0.53485 0.04000
H 	H 	0.13019 0.37763 0.48379 0.04900
H 	H 	0.88965 0.38910 0.53484 0.04000
H 	H 	0.96801 0.50511 0.42776 0.02200
H 	H 	0.05100 0.49667 0.58349 0.01800
H 	H 	0.46801 0.00511 0.42776 0.04500
H 	H 	0.55100 0.99666 0.58350 0.01000
H 	H 	0.94911 0.50454 0.54043 0.04300
H 	H 	0.07596 0.49427 0.47307 0.04600
H 	H 	0.44911 0.00454 0.54043 0.06600
H 	H 	0.57596 0.99427 0.47308 0.03700
H 	H 	0.83243 0.93875 0.06380 0.01900
H 	H 	0.18007 0.91906 0.93889 0.02000
H 	H 	0.33243 0.43874 0.06380 0.03900
H 	H 	0.68007 0.41906 0.93889 0.04000
H 	H 	0.69804 0.22655 0.44338 0.03100
H 	H 	0.31461 0.21484 0.55649 0.03200
H 	H 	0.19804 0.72655 0.44338 0.03000
H 	H 	0.81461 0.71484 0.55649 0.03100
H 	H 	0.85918 0.08641 0.07312 0.03300
H 	H 	0.14264 0.05675 0.93231 0.03400
H 	H 	0.35918 0.58641 0.07312 0.03500
H 	H 	0.64264 0.55675 0.93231 0.03500
H 	H 	0.87050 0.07247 0.95345 0.03900
H 	H 	0.13264 0.04240 0.04955 0.03800
H 	H 	0.37050 0.57247 0.95345 0.04000
H 	H 	0.63264 0.54240 0.04955 0.03900
H 	H 	0.82243 0.94507 0.94622 0.01600
H 	H 	0.19217 0.92789 0.05917 0.01600
H 	H 	0.32243 0.44507 0.94622 0.03600
H 	H 	0.69217 0.42789 0.05917 0.03600
H 	H 	0.69953 0.92241 0.04426 0.01700
H 	H 	0.33813 0.94840 0.95498 0.01400
H 	H 	0.19953 0.42241 0.04426 0.03800
H 	H 	0.83813 0.44840 0.95498 0.03500
H 	H 	0.70627 0.94038 0.92199 0.01100
H 	H 	0.31021 0.95588 0.07778 0.01100
H 	H 	0.20627 0.44038 0.92199 0.03000
H 	H 	0.81021 0.45588 0.07778 0.03100
H 	H 	0.69667 0.23862 0.08360 0.03100
H 	H 	0.28936 0.25027 0.91760 0.03000
H 	H 	0.19667 0.73862 0.08360 0.03000
H 	H 	0.78936 0.75027 0.91760 0.02900
H 	H 	0.78705 0.25225 0.08783 0.03000
H 	H 	0.20000 0.23369 0.90822 0.02900
H 	H 	0.28705 0.75225 0.08783 0.03000
H 	H 	0.70000 0.73369 0.90822 0.02900
H 	H 	0.77945 0.29489 0.96452 0.03600
H 	H 	0.18792 0.24864 0.02680 0.03800
H 	H 	0.27945 0.79488 0.96452 0.03400
H 	H 	0.68792 0.74864 0.02680 0.03900
H 	H 	0.69421 0.24777 0.96331 0.03800
H 	H 	0.27654 0.28023 0.03951 0.04100
H 	H 	0.19421 0.74777 0.96331 0.03600
H 	H 	0.77654 0.78023 0.03951 0.04000
H 	H 	0.64280 0.04540 0.04731 0.03900
H 	H 	0.35615 0.10095 0.95674 0.03200
H 	H 	0.14280 0.54540 0.04731 0.04000
H 	H 	0.85615 0.60095 0.95674 0.03600
H 	H 	0.68255 0.22727 0.56424 0.03900
H 	H 	0.31901 0.22400 0.43572 0.03900
H 	H 	0.18255 0.72727 0.56424 0.03600
H 	H 	0.81901 0.72400 0.43572 0.03600
H 	H 	0.65337 0.06811 0.92500 0.03000
H 	H 	0.34805 0.10056 0.07654 0.03100
H 	H 	0.15337 0.56811 0.92500 0.03000
H 	H 	0.84805 0.60056 0.07654 0.03200
H 	H 	0.03424 0.54414 0.05903 0.03500
H 	H 	0.94944 0.53473 0.94361 0.03800
H 	H 	0.53424 0.04414 0.05903 0.06200
H 	H 	0.44943 0.03473 0.94361 0.06500
H 	H 	0.94724 0.51341 0.06488 0.03300
H 	H 	0.03648 0.52626 0.94048 0.03200
H 	H 	0.44724 0.01341 0.06488 0.06000
H 	H 	0.53648 0.02626 0.94048 0.05900
H 	H 	0.60789 0.85197 0.04271 0.03500
H 	H 	0.38557 0.78229 0.95483 0.03500
H 	H 	0.10789 0.35197 0.04271 0.03800
H 	H 	0.88557 0.28229 0.95483 0.03500
H 	H 	0.59757 0.85264 0.92041 0.02500
H 	H 	0.40037 0.81980 0.07843 0.02800
H 	H 	0.09757 0.35264 0.92041 0.03000
H 	H 	0.90036 0.31979 0.07843 0.03100
H 	H 	0.95241 0.18916 0.07796 0.03400
H 	H 	0.06132 0.20785 0.92340 0.03200
H 	H 	0.45241 0.68916 0.07796 0.03200
H 	H 	0.56132 0.70785 0.92340 0.03100
H 	H 	0.95217 0.17868 0.95802 0.04000
H 	H 	0.07560 0.20426 0.04570 0.04200
H 	H 	0.45217 0.67868 0.95802 0.03800
H 	H 	0.57560 0.70426 0.04570 0.04200
H 	H 	0.65242 0.08386 0.56494 0.04600
H 	H 	0.34892 0.07833 0.42788 0.04300
H 	H 	0.15242 0.58386 0.56494 0.03600
H 	H 	0.84892 0.57833 0.42788 0.03300
H 	H 	0.73012 0.86630 0.46052 0.03600
H 	H 	0.28077 0.87174 0.52973 0.03600
H 	H 	0.23012 0.36630 0.46052 0.03500
H 	H 	0.78077 0.37174 0.52973 0.03500
H 	H 	0.71728 0.91629 0.58290 0.04300
H 	H 	0.26600 0.90515 0.40273 0.02900
H 	H 	0.21728 0.41629 0.58290 0.04300
H 	H 	0.76599 0.40515 0.40273 0.02900
H 	H 	0.85847 0.08670 0.42297 0.04400
H 	H 	0.14712 0.09413 0.57640 0.04100
H 	H 	0.35847 0.58670 0.42297 0.03800
H 	H 	0.64712 0.59412 0.57640 0.03600
H 	H 	0.80748 0.21603 0.42316 0.03400
H 	H 	0.20156 0.22170 0.57099 0.03600
H 	H 	0.30748 0.71603 0.42316 0.03400
H 	H 	0.70156 0.72170 0.57099 0.03700
H 	H 	0.84134 0.22503 0.54760 0.03600
H 	H 	0.16381 0.22404 0.44803 0.03400
H 	H 	0.34134 0.72503 0.54760 0.03400
H 	H 	0.66381 0.72404 0.44803 0.03300
O 	O 	0.95721 0.44941 0.66548 -0.47700
O 	O 	0.04279 0.44941 0.33452 -0.44900
O 	O 	0.45721 0.94941 0.66548 -0.48600
O 	O 	0.54279 0.94941 0.33452 -0.45600
O 	O 	0.73626 0.21201 0.82656 -0.49800
O 	O 	0.26374 0.21201 0.17344 -0.49800
O 	O 	0.23626 0.71201 0.82656 -0.49900
O 	O 	0.76374 0.71201 0.17344 -0.50000
O 	O 	0.83252 0.09530 0.83600 -0.45500
O 	O 	0.16748 0.09530 0.16400 -0.45700
O 	O 	0.33252 0.59530 0.83600 -0.46000
O 	O 	0.66748 0.59530 0.16400 -0.46200
O 	O 	0.94638 0.25394 0.82694 -0.51100
O 	O 	0.05362 0.25394 0.17306 -0.51000
O 	O 	0.44638 0.75394 0.82694 -0.51300
O 	O 	0.55362 0.75394 0.17306 -0.51100
O 	O 	0.83456 0.33457 0.74884 -0.71400
O 	O 	0.16544 0.33457 0.25116 -0.71700
O 	O 	0.33456 0.83457 0.74884 -0.71900
O 	O 	0.66544 0.83457 0.25116 -0.72100
O 	O 	0.82073 0.54124 0.66825 -0.50600
O 	O 	0.17927 0.54124 0.33175 -0.51000
O 	O 	0.32073 0.04124 0.66825 -0.49800
O 	O 	0.67927 0.04124 0.33175 -0.50100
O 	O 	0.71424 0.45506 0.66371 -0.46600
O 	O 	0.28576 0.45506 0.33629 -0.46800
O 	O 	0.21424 0.95506 0.66371 -0.49000
O 	O 	0.78576 0.95506 0.33629 -0.49300
O 	O 	0.73678 0.20487 0.67591 -0.50700
O 	O 	0.26322 0.20487 0.32409 -0.50900
O 	O 	0.23678 0.70487 0.67591 -0.51100
O 	O 	0.76322 0.70487 0.32409 -0.51300
O 	O 	0.83307 0.08759 0.67349 -0.46500
O 	O 	0.16693 0.08759 0.32651 -0.47000
O 	O 	0.33307 0.58759 0.67349 -0.47300
O 	O 	0.66693 0.58759 0.32651 -0.47700
O 	O 	0.94689 0.24680 0.67630 -0.50900
O 	O 	0.05311 0.24680 0.32370 -0.48000
O 	O 	0.44689 0.74680 0.67630 -0.51100
O 	O 	0.55311 0.74680 0.32370 -0.48100
O 	O 	0.95665 0.45712 0.82798 -0.47400
O 	O 	0.04335 0.45712 0.17202 -0.47400
O 	O 	0.45665 0.95712 0.82798 -0.48400
O 	O 	0.54335 0.95712 0.17202 -0.48300
O 	O 	0.82022 0.54839 0.81889 -0.50100
O 	O 	0.17978 0.54839 0.18111 -0.49900
O 	O 	0.32022 0.04839 0.81889 -0.49400
O 	O 	0.67978 0.04839 0.18111 -0.49200
O 	O 	0.71368 0.46277 0.82621 -0.46900
O 	O 	0.28632 0.46277 0.17379 -0.46700
O 	O 	0.21368 0.96277 0.82621 -0.49500
O 	O 	0.78632 0.96277 0.17379 -0.49300
N 	N 	0.60941 0.85327 0.61796 -0.14500
H 	H 	0.60685 0.76416 0.62762 0.07400
C 	C 	0.62141 0.91658 0.68459 -0.12100
H 	H 	0.66864 0.88335 0.71011 0.04100
H 	H 	0.57940 0.90142 0.72215 0.04800
H 	H 	0.62750 0.01302 0.67558 0.06300
N 	N 	0.40565 0.86186 0.40015 -0.14000
H 	H 	0.36167 0.87232 0.42593 0.06900
C 	C 	0.39881 0.89831 0.32604 -0.08400
H 	H 	0.34752 0.87531 0.30561 0.03300
H 	H 	0.43482 0.84969 0.29213 0.05600
H 	H 	0.40578 0.99549 0.32036 0.03000
N 	N 	0.10941 0.35329 0.61796 -0.14800
H 	H 	0.10686 0.26417 0.62761 0.07600
C 	C 	0.12140 0.41659 0.68459 -0.08700
H 	H 	0.16866 0.38342 0.71009 0.04000
H 	H 	0.07941 0.40136 0.72217 0.04400
H 	H 	0.12744 0.51304 0.67559 0.03800
N 	N 	0.90565 0.36186 0.40015 -0.14100
H 	H 	0.86167 0.37232 0.42593 0.07300
C 	C 	0.89881 0.39831 0.32603 -0.08300
H 	H 	0.84752 0.37533 0.30561 0.03700
H 	H 	0.93482 0.34968 0.29213 0.05800
H 	H 	0.90579 0.49549 0.32035 0.03900
