data_crystal

_cell_length_a 19.09249
_cell_length_b 11.02433
_cell_length_c 18.82498
_cell_angle_alpha 89.92301
_cell_angle_beta  90.26506
_cell_angle_gamma 89.74472

_symmetry_space_group_name_	'P 1'
_symmetry_space_group_name_H-M	'P 1'

loop_
_symmetry_equiv_pos_as_xyz
  x,y,z

loop_
_atom_site_label
_atom_site_type_symbol
_atom_site_fract_x
_atom_site_fract_y
_atom_site_fract_z
_atom_site_charge
C 	C 	0.72481 0.96208 0.85590 0.45100
C 	C 	0.30752 0.45591 0.03830 0.04800
C 	C 	0.76121 0.85919 0.35474 0.43000
C 	C 	0.49916 0.16532 0.92232 -0.19000
C 	C 	0.50388 0.16822 0.07940 -0.19000
C 	C 	0.99916 0.66532 0.92232 -0.19300
C 	C 	0.00388 0.66822 0.07940 -0.19100
C 	C 	0.50505 0.06375 0.04151 0.01600
C 	C 	0.50532 0.06247 0.96188 0.01500
C 	C 	0.00505 0.56375 0.04151 0.03300
C 	C 	0.00532 0.56247 0.96188 0.03300
C 	C 	0.77543 0.47228 0.06479 -0.08600
C 	C 	0.19413 0.94098 0.96682 0.05800
C 	C 	0.23939 0.43281 0.92976 -0.13000
C 	C 	0.27543 0.97228 0.06479 -0.09500
C 	C 	0.73939 0.93281 0.92976 -0.14000
C 	C 	0.50821 0.94779 0.07849 0.08500
C 	C 	0.50571 0.94477 0.92707 0.08700
C 	C 	0.00821 0.44779 0.07849 0.06500
C 	C 	0.00571 0.44477 0.92707 0.06600
C 	C 	0.56953 0.50046 0.94773 0.09100
C 	C 	0.41130 0.57431 0.07292 0.09200
C 	C 	0.06953 0.00046 0.94773 0.06600
C 	C 	0.80752 0.95591 0.03830 0.05500
C 	C 	0.91130 0.07431 0.07292 0.08700
C 	C 	0.66257 0.62428 0.89976 0.09000
C 	C 	0.29371 0.66037 0.08771 0.09500
C 	C 	0.16257 0.12428 0.89976 0.08400
C 	C 	0.79371 0.16037 0.08771 0.09200
C 	C 	0.81869 0.40958 0.95046 0.01900
C 	C 	0.18717 0.39071 0.04372 0.00700
C 	C 	0.31869 0.90958 0.95046 0.01800
C 	C 	0.68717 0.89071 0.04372 0.00700
C 	C 	0.83045 0.43604 0.02123 -0.01200
C 	C 	0.18286 0.39368 0.97086 0.00700
C 	C 	0.33045 0.93604 0.02123 -0.00500
C 	C 	0.29013 0.99988 0.13878 0.35200
C 	C 	0.68287 0.89368 0.97086 0.01400
C 	C 	0.65875 0.58035 0.03250 -0.09600
C 	C 	0.33243 0.59294 0.96590 -0.09900
C 	C 	0.15875 0.08035 0.03250 -0.11400
C 	C 	0.83243 0.09294 0.96590 -0.11400
C 	C 	0.64199 0.54143 0.95698 -0.05200
C 	C 	0.33903 0.57919 0.04585 -0.05000
C 	C 	0.14199 0.04143 0.95698 -0.05300
C 	C 	0.83903 0.07919 0.04585 -0.05800
C 	C 	0.75057 0.41344 0.92227 -0.13900
C 	C 	0.22481 0.46208 0.85590 0.42500
C 	C 	0.25060 0.41397 0.07779 -0.13200
C 	C 	0.25057 0.91344 0.92227 -0.13600
C 	C 	0.75060 0.91397 0.07779 -0.12900
C 	C 	0.50853 0.17028 0.42086 -0.13300
C 	C 	0.51662 0.17077 0.56849 -0.13900
C 	C 	0.00853 0.67028 0.42086 -0.13600
C 	C 	0.01662 0.67077 0.56849 -0.14200
C 	C 	0.52213 0.27821 0.45767 0.05000
C 	C 	0.52544 0.27736 0.53001 0.05700
C 	C 	0.02214 0.77821 0.45767 0.05200
C 	C 	0.79013 0.49988 0.13878 0.32600
C 	C 	0.02544 0.77736 0.53000 0.05800
C 	C 	0.51560 0.06005 0.53174 -0.00800
C 	C 	0.51369 0.05974 0.45755 -0.01300
C 	C 	0.01559 0.56005 0.53174 0.01100
C 	C 	0.01369 0.55974 0.45755 0.00600
C 	C 	0.52967 0.17696 0.85076 0.43300
C 	C 	0.47112 0.17729 0.14988 0.43200
C 	C 	0.02967 0.67696 0.85076 0.43600
C 	C 	0.97112 0.67729 0.14988 0.43500
C 	C 	0.48523 0.39938 0.45819 -0.08700
C 	C 	0.70725 0.47429 0.03698 0.05100
C 	C 	0.48878 0.39605 0.53817 -0.08800
C 	C 	0.98525 0.89939 0.45819 -0.08800
C 	C 	0.98879 0.89607 0.53817 -0.08800
C 	C 	0.75081 0.40162 0.41966 -0.13500
C 	C 	0.25027 0.41255 0.57822 -0.13400
C 	C 	0.25081 0.90163 0.41966 -0.14000
C 	C 	0.75027 0.91255 0.57822 -0.14400
C 	C 	0.79866 0.32960 0.45777 0.05000
C 	C 	0.21453 0.31848 0.54431 0.04900
C 	C 	0.29866 0.82960 0.45777 0.05500
C 	C 	0.30116 0.46860 0.96454 0.05600
C 	C 	0.71454 0.81847 0.54431 0.05600
C 	C 	0.79421 0.31955 0.53026 0.05200
C 	C 	0.21614 0.30852 0.47156 0.05300
C 	C 	0.29421 0.81955 0.53026 0.05200
C 	C 	0.71614 0.80852 0.47156 0.05500
C 	C 	0.68669 0.43310 0.52933 0.00800
C 	C 	0.29853 0.47197 0.46348 0.00900
C 	C 	0.18669 0.93312 0.52933 0.00800
C 	C 	0.79853 0.97197 0.46348 0.02400
C 	C 	0.69058 0.44245 0.45500 0.00700
C 	C 	0.20725 0.97429 0.03698 0.07100
C 	C 	0.29684 0.48332 0.53759 0.00300
C 	C 	0.19059 0.94247 0.45500 0.01300
C 	C 	0.79685 0.98331 0.53759 0.02400
C 	C 	0.87704 0.33328 0.46129 -0.09000
C 	C 	0.13933 0.28061 0.54688 -0.08800
C 	C 	0.37704 0.83327 0.46128 -0.09200
C 	C 	0.63934 0.78059 0.54688 -0.09000
C 	C 	0.87153 0.32194 0.54101 -0.08700
C 	C 	0.14081 0.27443 0.46669 -0.08800
C 	C 	0.37153 0.82194 0.54101 -0.08500
C 	C 	0.80116 0.96860 0.96454 0.07600
C 	C 	0.64082 0.77441 0.46670 -0.08700
C 	C 	0.74221 0.37989 0.56806 -0.13900
C 	C 	0.25425 0.38882 0.42950 -0.13700
C 	C 	0.24222 0.87990 0.56806 -0.13500
C 	C 	0.75425 0.88882 0.42950 -0.13900
C 	C 	0.73817 0.36295 0.85264 0.43200
C 	C 	0.26159 0.36424 0.14790 0.42500
C 	C 	0.23817 0.86295 0.85264 0.43400
C 	C 	0.76159 0.86424 0.14790 0.42700
C 	C 	0.72789 0.95589 0.64749 0.44700
C 	C 	0.69413 0.44098 0.96682 0.05100
C 	C 	0.27194 0.95366 0.35185 0.45000
C 	C 	0.22789 0.45589 0.64749 0.42200
C 	C 	0.77194 0.45366 0.35185 0.42800
C 	C 	0.53235 0.17666 0.64316 0.42700
C 	C 	0.47143 0.17656 0.35414 0.42300
C 	C 	0.03234 0.67666 0.64316 0.43000
C 	C 	0.97143 0.67656 0.35414 0.42500
C 	C 	0.73745 0.35554 0.64381 0.42900
C 	C 	0.26121 0.35920 0.35474 0.42500
C 	C 	0.23745 0.85554 0.64381 0.43000
Cr	Cr	0.76926 0.16375 0.75073 1.53600
Cr	Cr	0.38581 0.32240 0.25229 1.53800
Cr	Cr	0.11419 0.82240 0.74771 1.53900
Cr	Cr	0.88581 0.82240 0.25229 1.53900
Cr	Cr	0.23074 0.16375 0.24927 1.53400
Cr	Cr	0.26926 0.66375 0.75073 1.53600
Cr	Cr	0.73074 0.66375 0.24927 1.53400
Cr	Cr	0.61264 0.00991 0.74878 1.53300
Cr	Cr	0.38736 0.00991 0.25122 1.52900
Cr	Cr	0.11264 0.50991 0.74878 1.53800
Cr	Cr	0.88736 0.50991 0.25122 1.53400
Cr	Cr	0.61419 0.32240 0.74771 1.53800
H 	H 	0.51750 0.47265 0.43460 0.04100
H 	H 	0.10362 0.35183 0.56653 0.05500
H 	H 	0.39735 0.92262 0.44470 0.06400
H 	H 	0.60363 0.85181 0.56654 0.05800
H 	H 	0.89278 0.23488 0.56177 0.04000
H 	H 	0.13273 0.18221 0.44563 0.04100
H 	H 	0.39278 0.73488 0.56177 0.04200
H 	H 	0.63274 0.68219 0.44563 0.04600
H 	H 	0.88912 0.40421 0.57003 0.05200
H 	H 	0.10862 0.34575 0.44043 0.05000
H 	H 	0.38912 0.90420 0.57003 0.05600
H 	H 	0.43672 0.38661 0.56376 0.05300
H 	H 	0.60863 0.84573 0.44044 0.05300
H 	H 	0.93054 0.89575 0.43868 0.06200
H 	H 	0.02252 0.96785 0.56109 0.04700
H 	H 	0.43051 0.39570 0.43869 0.05900
H 	H 	0.52250 0.46785 0.56109 0.04300
H 	H 	0.64946 0.48843 0.42596 0.02700
H 	H 	0.32731 0.55437 0.56209 0.03100
H 	H 	0.14946 0.98845 0.42596 0.03100
H 	H 	0.82731 0.05437 0.56209 0.01600
H 	H 	0.90183 0.25315 0.43569 0.04000
H 	H 	0.01755 0.97264 0.43460 0.04600
H 	H 	0.13281 0.19063 0.57256 0.03900
H 	H 	0.40182 0.75313 0.43569 0.04400
H 	H 	0.63282 0.69061 0.57256 0.04500
H 	H 	0.51470 0.25443 0.05422 0.09700
H 	H 	0.48341 0.24930 0.94678 0.09900
H 	H 	0.01470 0.75443 0.05422 0.10100
H 	H 	0.98341 0.74930 0.94678 0.10200
H 	H 	0.86271 0.38225 0.91820 0.04100
H 	H 	0.14243 0.35843 0.07289 0.04500
H 	H 	0.36271 0.88225 0.91820 0.04300
H 	H 	0.93673 0.88664 0.56375 0.05600
H 	H 	0.64243 0.85843 0.07289 0.04700
H 	H 	0.88249 0.42783 0.04205 0.04700
H 	H 	0.13386 0.36795 0.94710 0.05100
H 	H 	0.38249 0.92783 0.04205 0.04800
H 	H 	0.63385 0.86795 0.94710 0.05000
H 	H 	0.18900 0.16476 0.03645 0.06700
H 	H 	0.79392 0.16301 0.94900 0.07100
H 	H 	0.68900 0.66476 0.03645 0.06400
H 	H 	0.29392 0.66301 0.94900 0.06900
H 	H 	0.61478 0.57259 0.07074 0.06400
H 	H 	0.64189 0.47048 0.55645 0.02800
H 	H 	0.38310 0.59640 0.93714 0.06300
H 	H 	0.11478 0.07258 0.07074 0.06500
H 	H 	0.88311 0.09640 0.93714 0.06200
H 	H 	0.51320 0.97516 0.56020 0.04100
H 	H 	0.50877 0.97452 0.42970 0.04100
H 	H 	0.01319 0.47516 0.56021 0.02500
H 	H 	0.00876 0.47452 0.42970 0.02600
H 	H 	0.33237 0.53055 0.43286 0.02700
H 	H 	0.14190 0.97051 0.55646 0.03200
H 	H 	0.83237 0.03054 0.43286 0.01100
H 	H 	0.89734 0.42263 0.44471 0.05900
N 	N 	0.51018 0.85557 0.10794 -0.12800
N 	N 	0.25646 0.71976 0.12134 -0.10800
N 	N 	0.17948 0.18476 0.85280 -0.12300
N 	N 	0.75646 0.21976 0.12134 -0.11100
N 	N 	0.50539 0.85099 0.89944 -0.13000
N 	N 	0.01018 0.35557 0.10794 -0.12600
N 	N 	0.00539 0.35099 0.89944 -0.12800
N 	N 	0.51197 0.47090 0.94020 -0.12500
N 	N 	0.46807 0.57030 0.09460 -0.12700
N 	N 	0.01197 0.97090 0.94020 -0.10600
N 	N 	0.96807 0.07030 0.09460 -0.13100
N 	N 	0.67948 0.68476 0.85280 -0.12000
O 	O 	0.78429 0.29036 0.83054 -0.49300
O 	O 	0.45602 0.28211 0.33323 -0.48900
O 	O 	0.04398 0.78211 0.66677 -0.48700
O 	O 	0.95602 0.78211 0.33323 -0.48700
O 	O 	0.67907 0.37403 0.67443 -0.53200
O 	O 	0.32093 0.37403 0.32557 -0.53000
O 	O 	0.17907 0.87403 0.67443 -0.52900
O 	O 	0.82093 0.87403 0.32557 -0.52700
O 	O 	0.66536 0.16535 0.74907 -0.74400
O 	O 	0.33464 0.16535 0.25093 -0.74900
O 	O 	0.16536 0.66535 0.74907 -0.74200
O 	O 	0.21571 0.29036 0.16946 -0.49200
O 	O 	0.83464 0.66535 0.25093 -0.74700
O 	O 	0.76261 0.04107 0.82523 -0.54600
O 	O 	0.23739 0.04107 0.17477 -0.50300
O 	O 	0.26261 0.54107 0.82523 -0.52800
O 	O 	0.73739 0.54107 0.17477 -0.48500
O 	O 	0.66739 0.92416 0.82997 -0.47000
O 	O 	0.33261 0.92416 0.17003 -0.43000
O 	O 	0.16739 0.42416 0.82997 -0.47200
O 	O 	0.83261 0.42416 0.17003 -0.43200
O 	O 	0.55398 0.08142 0.82178 -0.53400
O 	O 	0.28429 0.79036 0.83054 -0.49100
O 	O 	0.44602 0.08142 0.17822 -0.53900
O 	O 	0.05398 0.58142 0.82178 -0.52800
O 	O 	0.94602 0.58142 0.17822 -0.53200
O 	O 	0.54321 0.28317 0.82674 -0.48200
O 	O 	0.45679 0.28317 0.17326 -0.48500
O 	O 	0.04321 0.78317 0.82674 -0.47900
O 	O 	0.95679 0.78317 0.17326 -0.48100
O 	O 	0.67835 0.37500 0.82272 -0.52400
O 	O 	0.32165 0.37500 0.17728 -0.52500
O 	O 	0.17835 0.87500 0.82272 -0.51900
O 	O 	0.71571 0.79036 0.16946 -0.49000
O 	O 	0.82165 0.87500 0.17728 -0.52100
O 	O 	0.78506 0.28930 0.67058 -0.49100
O 	O 	0.21494 0.28930 0.32942 -0.48800
O 	O 	0.28506 0.78930 0.67058 -0.48900
O 	O 	0.71494 0.78930 0.32942 -0.48600
O 	O 	0.76333 0.04009 0.67694 -0.54700
O 	O 	0.23667 0.04009 0.32306 -0.54600
O 	O 	0.26333 0.54009 0.67694 -0.52900
O 	O 	0.73667 0.54009 0.32306 -0.52800
O 	O 	0.66816 0.92311 0.67000 -0.48500
O 	O 	0.55469 0.08044 0.67348 -0.53600
O 	O 	0.33184 0.92311 0.33000 -0.48700
O 	O 	0.16816 0.42311 0.67000 -0.48700
O 	O 	0.83184 0.42311 0.33000 -0.49000
O 	O 	0.44531 0.08044 0.32652 -0.53300
O 	O 	0.05469 0.58044 0.67348 -0.53100
O 	O 	0.94531 0.58044 0.32652 -0.52700
O 	O 	0.54398 0.28211 0.66677 -0.48900
