data_crystal

_cell_length_a 21.97437
_cell_length_b 7.20814
_cell_length_c 14.91138
_cell_angle_alpha 89.96998
_cell_angle_beta  106.86907
_cell_angle_gamma 89.96039

_symmetry_space_group_name_	'P 1'
_symmetry_space_group_name_H-M	'P 1'

loop_
_symmetry_equiv_pos_as_xyz
  x,y,z

loop_
_atom_site_label
_atom_site_type_symbol
_atom_site_fract_x
_atom_site_fract_y
_atom_site_fract_z
_atom_site_charge
O 	O 	0.58477 0.50577 0.00209 -0.47500
O 	O 	0.41523 0.00577 0.99791 -0.47700
O 	O 	0.46706 0.17334 0.86195 -0.46900
O 	O 	0.53294 0.67334 0.13805 -0.46800
C 	C 	0.45547 0.34456 0.82596 0.32300
C 	C 	0.54456 0.84441 0.17404 0.32400
O 	O 	0.58751 0.17589 0.99321 -0.47800
O 	O 	0.41249 0.67589 0.00679 -0.47800
O 	O 	0.53654 0.00815 0.13010 -0.46300
O 	O 	0.46346 0.50815 0.86990 -0.46100
C 	C 	0.61187 0.34476 0.99330 0.32900
C 	C 	0.38815 0.84489 0.00681 0.33200
O 	O 	0.48314 0.34004 0.04476 -0.61700
O 	O 	0.51686 0.84004 0.95524 -0.61400
V 	V 	0.50313 0.06419 0.99170 1.79200
V 	V 	0.49687 0.56419 0.00830 1.79300
C 	C 	0.21383 0.73626 0.99636 0.02700
C 	C 	0.78636 0.23648 0.00446 0.03000
C 	C 	0.17754 0.88939 0.98592 -0.15700
C 	C 	0.82242 0.38978 0.01396 -0.16400
H 	H 	0.19448 0.60275 0.00784 0.04000
H 	H 	0.80591 0.10269 0.99384 0.03900
H 	H 	0.19550 0.01893 0.96651 0.08100
H 	H 	0.80423 0.51974 0.03257 0.08600
C 	C 	0.27837 0.73909 0.98318 -0.03100
C 	C 	0.72185 0.23969 0.01774 -0.03600
C 	C 	0.32598 0.85668 0.02691 -0.05800
C 	C 	0.67402 0.35615 0.97319 -0.05400
H 	H 	0.28750 0.63469 0.93615 0.04900
H 	H 	0.71293 0.13659 0.06560 0.04900
C 	C 	0.92618 0.88623 0.72437 -0.09100
C 	C 	0.07381 0.38494 0.27560 -0.09200
C 	C 	0.57287 0.85397 0.27540 -0.08200
C 	C 	0.42722 0.35479 0.72459 -0.08200
C 	C 	0.93665 0.86347 0.56829 -0.07400
C 	C 	0.06355 0.34755 0.43117 -0.07500
C 	C 	0.96447 0.87393 0.66467 0.03100
C 	C 	0.03566 0.36271 0.33498 0.03200
C 	C 	0.85994 0.88949 0.68793 0.01000
C 	C 	0.13999 0.39292 0.31220 0.01000
C 	C 	0.83026 0.88091 0.59010 -0.02300
C 	C 	0.16976 0.37843 0.40984 -0.02300
C 	C 	0.87019 0.86595 0.53068 0.04400
C 	C 	0.12997 0.35415 0.46891 0.04400
C 	C 	0.76267 0.88507 0.54950 0.00800
C 	C 	0.23732 0.38520 0.45054 0.00800
C 	C 	0.73628 0.86820 0.45010 0.00600
C 	C 	0.26382 0.36308 0.54967 0.00600
C 	C 	0.77836 0.85283 0.39448 -0.03000
C 	C 	0.22188 0.33866 0.60492 -0.03000
C 	C 	0.84375 0.85281 0.43411 -0.05600
C 	C 	0.15651 0.33530 0.56521 -0.05600
C 	C 	0.72065 0.90710 0.60480 -0.03500
C 	C 	0.27920 0.41436 0.39560 -0.03500
C 	C 	0.65521 0.90816 0.56506 -0.05800
C 	C 	0.34461 0.41844 0.43544 -0.05800
C 	C 	0.62873 0.88837 0.46874 0.04000
C 	C 	0.37120 0.39501 0.53154 0.04000
C 	C 	0.66868 0.86850 0.40962 -0.02000
C 	C 	0.33139 0.36724 0.59029 -0.02000
C 	C 	0.56225 0.89010 0.43091 -0.07300
C 	C 	0.43763 0.40133 0.56956 -0.07300
C 	C 	0.53449 0.87362 0.33466 0.02300
C 	C 	0.46545 0.38224 0.66569 0.02200
C 	C 	0.63904 0.85061 0.31213 0.00500
C 	C 	0.36112 0.34634 0.68762 0.00500
H 	H 	0.87403 0.84132 0.38844 0.04600
H 	H 	0.12634 0.31653 0.61059 0.04600
H 	H 	0.66557 0.83507 0.26219 0.03600
H 	H 	0.33470 0.32564 0.73733 0.03600
H 	H 	0.48319 0.87748 0.30633 0.02600
H 	H 	0.51668 0.39037 0.69424 0.02500
H 	H 	0.62497 0.92523 0.61045 0.04100
H 	H 	0.37474 0.44112 0.39033 0.04000
H 	H 	0.96717 0.85275 0.52298 0.05100
H 	H 	0.03315 0.32926 0.47620 0.05100
H 	H 	0.01580 0.87137 0.69277 0.02900
H 	H 	0.98439 0.35576 0.30672 0.02800
H 	H 	0.83333 0.89679 0.73818 0.03200
H 	H 	0.16650 0.40765 0.26214 0.03200
H 	H 	0.76256 0.84160 0.31935 0.03900
H 	H 	0.23775 0.32214 0.67981 0.03900
H 	H 	0.73661 0.92579 0.67957 0.03500
H 	H 	0.26315 0.43618 0.32104 0.03500
H 	H 	0.53168 0.90566 0.47590 0.04700
H 	H 	0.46809 0.42304 0.52488 0.04600
O 	O 	0.03645 0.23307 0.13013 -0.46300
O 	O 	0.96355 0.73307 0.86987 -0.46300
O 	O 	0.91247 0.56057 0.00679 -0.48700
O 	O 	0.08753 0.06057 0.99321 -0.49200
C 	C 	0.88760 0.39219 0.00473 0.35900
C 	C 	0.11239 0.89208 0.99526 0.36400
O 	O 	0.03292 0.56294 0.13805 -0.47000
O 	O 	0.96708 0.06294 0.86195 -0.47300
O 	O 	0.08479 0.73050 0.00209 -0.47400
O 	O 	0.91521 0.23050 0.99791 -0.47200
C 	C 	0.04508 0.39430 0.17438 0.34400
C 	C 	0.95492 0.89449 0.82561 0.34700
O 	O 	0.01682 0.39617 0.95526 -0.61900
O 	O 	0.98318 0.89617 0.04474 -0.62000
V 	V 	0.99688 0.67209 0.00830 1.79200
V 	V 	0.00312 0.17209 0.99170 1.79200
C 	C 	0.32185 0.98714 0.10536 -0.06200
C 	C 	0.32061 0.87916 0.19370 -0.03000
C 	C 	0.31979 0.01031 0.27366 -0.16100
H 	H 	0.36295 0.09910 0.29215 0.06100
H 	H 	0.27675 0.09965 0.25311 0.06300
H 	H 	0.31898 0.92840 0.33641 0.06400
H 	H 	0.27783 0.78932 0.17894 0.04000
H 	H 	0.36342 0.78896 0.21654 0.03700
H 	H 	0.36418 0.07946 0.12469 0.05600
H 	H 	0.28036 0.08094 0.08267 0.04900
C 	C 	0.67782 0.48404 0.89359 -0.06400
C 	C 	0.67864 0.37304 0.80600 -0.03200
C 	C 	0.67926 0.50139 0.72485 -0.15600
H 	H 	0.63624 0.59093 0.70608 0.06000
H 	H 	0.72245 0.58998 0.74432 0.06300
H 	H 	0.67966 0.41733 0.66262 0.06200
H 	H 	0.72133 0.28256 0.82120 0.03900
H 	H 	0.63573 0.28325 0.78419 0.03600
H 	H 	0.63549 0.57658 0.87393 0.05800
H 	H 	0.71936 0.57765 0.91517 0.05000
