data_crystal

_cell_length_a 8.33649
_cell_length_b 13.03935
_cell_length_c 18.81662
_cell_angle_alpha 100.41021
_cell_angle_beta  90.73432
_cell_angle_gamma 99.19967

_symmetry_space_group_name_	'P 1'
_symmetry_space_group_name_H-M	'P 1'

loop_
_symmetry_equiv_pos_as_xyz
  x,y,z

loop_
_atom_site_label
_atom_site_type_symbol
_atom_site_fract_x
_atom_site_fract_y
_atom_site_fract_z
_atom_site_charge
Ba	Ba	0.85278 0.54834 0.46507 1.93500
Ba	Ba	0.33706 0.45175 0.53494 1.94600
C 	C 	0.71817 0.85502 0.18235 -0.19800
C 	C 	0.89918 0.40165 0.09521 -0.06700
C 	C 	0.80297 0.36850 0.94043 0.02200
C 	C 	0.16843 0.75922 0.26639 0.09000
C 	C 	0.95052 0.43156 0.97046 -0.09200
C 	C 	0.72324 0.39899 0.88330 -0.05100
C 	C 	0.81764 0.45125 0.83399 0.06700
C 	C 	0.98246 0.49584 0.85490 -0.11200
C 	C 	0.04503 0.49188 0.92559 0.10300
C 	C 	0.75633 0.45842 0.76411 -0.07100
C 	C 	0.86117 0.50432 0.71671 -0.00000
C 	C 	0.64983 0.78725 0.23653 0.09800
C 	C 	0.02460 0.54525 0.73453 -0.05500
C 	C 	0.08209 0.54891 0.80707 0.10000
C 	C 	0.16271 0.48903 0.06820 -0.01100
C 	C 	0.17438 0.78789 0.19153 -0.19500
C 	C 	0.21718 0.49335 0.14168 -0.02800
C 	C 	0.11063 0.45061 0.19174 0.07800
C 	C 	0.95322 0.40466 0.16585 -0.06500
C 	C 	0.23257 0.60791 0.83479 -0.06300
C 	C 	0.29068 0.60733 0.90473 0.00100
C 	C 	0.20300 0.54539 0.95020 -0.02300
C 	C 	0.40242 0.24439 0.31221 0.09100
C 	C 	0.26601 0.53756 0.01998 0.01500
C 	C 	0.42978 0.57507 0.04315 -0.03100
C 	C 	0.37835 0.53995 0.16469 0.04600
C 	C 	0.48531 0.57329 0.11308 -0.05600
C 	C 	0.29360 0.79498 0.64982 0.10100
C 	C 	0.42635 0.55374 0.23876 -0.07900
C 	C 	0.31477 0.52007 0.28855 0.02400
C 	C 	0.16233 0.46045 0.26633 -0.07900
C 	C 	0.75736 0.17968 0.52875 -0.01500
C 	C 	0.43466 0.80578 0.46914 0.01400
C 	C 	0.30939 0.17108 0.24603 -0.17600
C 	C 	0.41023 0.97371 0.43732 -0.00600
C 	C 	0.34454 0.86936 0.43857 -0.04700
C 	C 	0.57941 0.84849 0.50962 -0.05600
C 	C 	0.63962 0.96040 0.51684 0.02600
C 	C 	0.55358 0.02452 0.47958 0.01700
C 	C 	0.38230 0.89716 0.69579 -0.20100
C 	C 	0.61386 0.13613 0.48695 -0.04100
C 	C 	0.84897 0.11683 0.56000 -0.03800
C 	C 	0.78705 0.00886 0.55643 -0.03000
C 	C 	0.86723 0.20322 0.29192 0.07600
C 	C 	0.07326 0.24136 0.73404 0.13900
C 	C 	0.84542 0.09291 0.31078 -0.16200
C 	C 	0.76157 0.72104 0.68136 0.10700
C 	C 	0.81461 0.76729 0.76113 -0.15600
C 	C 	0.64485 0.85328 0.30955 0.06100
C 	C 	0.84408 0.18834 0.21114 0.07100
C 	C 	0.89728 0.09129 0.38655 0.16800
C 	C 	0.88297 0.88379 0.77160 0.16600
C 	C 	0.67728 0.74473 0.81026 0.17300
C 	C 	0.50287 0.33669 0.29032 0.10000
C 	C 	0.41723 0.11362 0.19559 0.16400
C 	C 	0.09588 0.21804 0.80953 -0.22200
C 	C 	0.55033 0.41049 0.89238 0.13000
C 	C 	0.75233 0.26096 0.95776 0.08900
C 	C 	0.33744 0.01643 0.38042 0.11200
C 	C 	0.82566 0.29077 0.53087 0.14700
C 	C 	0.20070 0.82010 0.58978 0.10000
C 	C 	0.57130 0.19495 0.70656 0.09100
C 	C 	0.63683 0.12959 0.75579 -0.20000
C 	C 	0.00399 0.43821 0.04387 0.07700
H 	H 	0.45144 0.87961 0.74145 0.09500
H 	H 	0.52371 0.75212 0.21683 0.00400
H 	H 	0.64722 0.91980 0.18085 0.07200
H 	H 	0.21726 0.11133 0.26435 0.10500
H 	H 	0.71069 0.80545 0.12742 0.07700
H 	H 	0.23751 0.87050 0.19492 0.08200
H 	H 	0.16042 0.31331 0.72928 0.03000
H 	H 	0.94727 0.25660 0.72697 -0.01000
H 	H 	0.22121 0.20260 0.81800 0.11700
H 	H 	0.07558 0.28649 0.85065 0.10100
H 	H 	0.00798 0.14758 0.81664 0.11100
H 	H 	0.46887 0.93953 0.66231 0.07900
H 	H 	0.67598 0.22953 0.67764 0.02500
H 	H 	0.48401 0.14211 0.66550 0.03100
H 	H 	0.72637 0.18152 0.79601 0.09200
H 	H 	0.69850 0.06854 0.72342 0.08200
H 	H 	0.53631 0.09088 0.78482 0.10000
H 	H 	0.81292 0.51128 0.66482 0.00600
H 	H 	0.86521 0.37484 0.20052 0.07900
H 	H 	0.30636 0.65714 0.80325 0.07700
H 	H 	0.61288 0.60126 0.12633 0.05700
H 	H 	0.35217 0.53344 0.34517 0.00200
H 	H 	0.29476 0.94940 0.71808 0.09100
H 	H 	0.77118 0.37338 0.08245 0.06100
H 	H 	0.40529 0.65728 0.92240 0.04900
H 	H 	0.29533 0.75968 0.28549 0.00900
H 	H 	0.51915 0.60421 0.00748 0.04200
H 	H 	0.85844 0.96291 0.58247 0.06200
H 	H 	0.38653 0.72264 0.46467 0.00700
H 	H 	0.24142 0.73405 0.15536 0.07500
H 	H 	0.04937 0.77965 0.16795 0.09800
H 	H 	0.56367 0.90926 0.31733 0.01400
H 	H 	0.73343 0.20426 0.18779 0.03100
H 	H 	0.71522 0.05863 0.30192 0.07100
H 	H 	0.77368 0.24482 0.31894 0.03200
H 	H 	0.85666 0.02236 0.40958 0.02600
H 	H 	0.98385 0.91016 0.73982 0.00000
H 	H 	0.56556 0.77555 0.80509 0.00800
H 	H 	0.31049 0.27398 0.34878 0.02400
H 	H 	0.52998 0.33828 0.23422 0.03000
H 	H 	0.48758 0.06009 0.21449 -0.00400
H 	H 	0.24312 0.21873 0.21613 0.10500
H 	H 	0.09722 0.67849 0.26210 0.03700
H 	H 	0.50777 0.47640 0.87546 0.03000
H 	H 	0.91801 0.04203 0.27539 0.08200
H 	H 	0.82910 0.23062 0.99323 0.03200
H 	H 	0.38867 0.01135 0.32786 0.01800
H 	H 	0.88045 0.31687 0.48391 -0.06300
H 	H 	0.38446 0.74579 0.62816 0.00700
H 	H 	0.18116 0.89996 0.58772 0.04100
H 	H 	0.87119 0.70304 0.65224 -0.01000
H 	H 	0.67247 0.64694 0.67767 -0.01000
H 	H 	0.84754 0.88896 0.19641 0.08100
H 	H 	0.91510 0.72807 0.77629 0.07800
O 	O 	0.87309 0.42589 0.32514 -0.34600
O 	O 	0.18596 0.12266 0.54970 -0.17500
O 	O 	0.10361 0.15458 0.68302 -0.21900
O 	O 	0.12242 0.43437 0.41438 -0.48000
O 	O 	0.57837 0.63380 0.53638 -0.49200
O 	O 	0.34151 0.23185 0.46551 -0.28300
O 	O 	0.50612 0.19068 0.34565 -0.22900
O 	O 	0.41517 0.45707 0.75306 -0.20900
O 	O 	0.48880 0.26975 0.74815 -0.20900
O 	O 	0.65950 0.62710 0.36881 -0.31600
O 	O 	0.73667 0.51844 0.24654 -0.20600
O 	O 	0.68972 0.79339 0.65043 -0.23900
O 	O 	0.02372 0.25643 0.31582 -0.19500
O 	O 	0.74868 0.71077 0.24006 -0.21600
O 	O 	0.84820 0.76819 0.53453 -0.31500
O 	O 	0.08116 0.68595 0.40481 -0.32300
O 	O 	0.01002 0.87467 0.44769 -0.15300
O 	O 	0.72823 0.84239 0.36044 -0.16100
O 	O 	0.94556 0.15479 0.17110 -0.19000
O 	O 	0.99194 0.16391 0.42203 -0.20600
O 	O 	0.82752 0.94911 0.81509 -0.21500
O 	O 	0.69094 0.69145 0.85640 -0.21300
O 	O 	0.09319 0.83228 0.31310 -0.19500
O 	O 	0.55941 0.41081 0.33732 -0.25000
O 	O 	0.42486 0.12570 0.13281 -0.19900
O 	O 	0.45694 0.35199 0.92259 -0.17100
O 	O 	0.62966 0.20263 0.93017 -0.16000
O 	O 	0.20878 0.04769 0.38905 -0.14300
O 	O 	0.81934 0.35506 0.58542 -0.26900
O 	O 	0.14113 0.74737 0.54268 -0.23900
O 	O 	0.31661 0.57414 0.67490 -0.34200
O 	O 	0.06729 0.56572 0.58563 -0.46300
O 	O 	0.53021 0.37299 0.63120 -0.32600
O 	O 	0.18248 0.74362 0.69182 -0.22500
O 	O 	0.61134 0.36629 0.46363 -0.44400
O 	O 	0.10855 0.31414 0.59520 -0.31600
P 	P 	0.04104 0.39477 0.33633 0.35700
P 	P 	0.67288 0.75403 0.55610 0.33100
P 	P 	0.13328 0.81734 0.40186 0.33500
P 	P 	0.14867 0.60532 0.66368 0.34200
P 	P 	0.06070 0.17675 0.59634 0.33500
P 	P 	0.63802 0.60583 0.27393 0.32400
P 	P 	0.52060 0.23058 0.44036 0.30300
P 	P 	0.54997 0.39373 0.72501 0.31800
