data_crystal

_cell_length_a 7.21941
_cell_length_b 12.16565
_cell_length_c 21.27517
_cell_angle_alpha 90.00005
_cell_angle_beta  90.25981
_cell_angle_gamma 89.99943

_symmetry_space_group_name_	'P 1'
_symmetry_space_group_name_H-M	'P 1'

loop_
_symmetry_equiv_pos_as_xyz
  x,y,z

loop_
_atom_site_label
_atom_site_type_symbol
_atom_site_fract_x
_atom_site_fract_y
_atom_site_fract_z
_atom_site_charge
O 	O 	0.35446 0.15232 0.59572 -0.44900
O 	O 	0.64554 0.84768 0.40428 -0.44900
O 	O 	0.14554 0.65232 0.40428 -0.44900
O 	O 	0.85446 0.34768 0.59572 -0.44900
O 	O 	0.68367 0.14009 0.72729 -0.47100
O 	O 	0.31633 0.85991 0.27271 -0.47100
O 	O 	0.81633 0.64009 0.27271 -0.47100
O 	O 	0.18367 0.35991 0.72729 -0.47100
O 	O 	0.85401 0.34934 0.72775 -0.46900
O 	O 	0.14599 0.65066 0.27225 -0.46900
O 	O 	0.64599 0.84934 0.27225 -0.46700
O 	O 	0.35401 0.15066 0.72775 -0.46700
C 	C 	0.51592 0.11148 0.74659 0.37500
C 	C 	0.48409 0.88851 0.25341 0.37500
C 	C 	0.98408 0.61149 0.25341 0.37600
C 	C 	0.01591 0.38850 0.74659 0.37600
O 	O 	0.68417 0.13942 0.59619 -0.44800
O 	O 	0.31583 0.86058 0.40381 -0.44800
O 	O 	0.81583 0.63942 0.40381 -0.44700
O 	O 	0.18417 0.36058 0.59619 -0.44700
C 	C 	0.51532 0.11331 0.57434 0.33900
C 	C 	0.48468 0.88670 0.42565 0.33900
C 	C 	0.98468 0.61331 0.42566 0.34000
C 	C 	0.01532 0.38670 0.57435 0.34000
O 	O 	0.52073 0.31948 0.66173 -0.59200
O 	O 	0.47927 0.68052 0.33827 -0.59200
O 	O 	0.97927 0.81948 0.33827 -0.59100
O 	O 	0.02073 0.18052 0.66173 -0.59100
V 	V 	0.79556 0.23809 0.66173 1.80100
V 	V 	0.20444 0.76191 0.33827 1.80100
V 	V 	0.70444 0.73809 0.33827 1.80100
V 	V 	0.29556 0.26191 0.66173 1.80100
C 	C 	0.00806 0.46946 0.79733 -0.11800
C 	C 	0.99180 0.53051 0.20268 -0.11800
C 	C 	0.49191 0.96946 0.20267 -0.11900
C 	C 	0.50823 0.03050 0.79732 -0.11900
C 	C 	0.94184 0.65113 0.83747 -0.10600
C 	C 	0.05636 0.34862 0.16254 -0.10600
C 	C 	0.55757 0.15120 0.16253 -0.10700
C 	C 	0.44431 0.84854 0.83746 -0.10700
C 	C 	0.96636 0.58104 0.78598 0.14100
C 	C 	0.03251 0.41878 0.21405 0.14100
C 	C 	0.53325 0.08109 0.21402 0.14300
C 	C 	0.46793 0.91872 0.78595 0.14300
C 	C 	0.02668 0.43049 0.85882 0.02600
C 	C 	0.97339 0.56949 0.14119 0.02600
C 	C 	0.47349 0.93046 0.14118 0.02700
C 	C 	0.52643 0.06952 0.85881 0.02700
C 	C 	0.00131 0.50016 0.91118 -0.03300
C 	C 	0.99768 0.49968 0.08884 -0.03300
C 	C 	0.49869 0.00016 0.08882 -0.03400
C 	C 	0.50237 0.99968 0.91116 -0.03400
C 	C 	0.95798 0.61190 0.89924 0.06200
C 	C 	0.04035 0.38786 0.10078 0.06200
C 	C 	0.54161 0.11195 0.10076 0.06300
C 	C 	0.46015 0.88780 0.89922 0.06300
C 	C 	0.01463 0.46224 0.97472 0.00900
C 	C 	0.98400 0.53755 0.02529 0.00900
C 	C 	0.48556 0.96222 0.02527 0.00900
C 	C 	0.51588 0.03757 0.97471 0.00900
C 	C 	0.94090 0.64809 0.01059 -0.02900
C 	C 	0.05703 0.35161 0.98942 -0.02900
C 	C 	0.55855 0.14817 0.98941 -0.03000
C 	C 	0.44363 0.85152 0.01058 -0.03000
C 	C 	0.92894 0.68412 0.94893 -0.06400
C 	C 	0.06877 0.31556 0.05108 -0.06400
C 	C 	0.57039 0.18421 0.05107 -0.06400
C 	C 	0.43202 0.81545 0.94892 -0.06400
H 	H 	0.89508 0.76963 0.94009 0.05200
H 	H 	0.10198 0.22995 0.05992 0.05200
H 	H 	0.60391 0.26976 0.05991 0.05200
H 	H 	0.39919 0.72980 0.94008 0.05200
H 	H 	0.94484 0.65593 0.13624 0.03300
H 	H 	0.05636 0.34419 0.86376 0.03300
H 	H 	0.55468 0.15599 0.86377 0.03200
H 	H 	0.44405 0.84413 0.13624 0.03200
H 	H 	0.90986 0.73708 0.82936 0.08400
H 	H 	0.08767 0.26258 0.17064 0.08400
H 	H 	0.58924 0.23719 0.17064 0.08400
H 	H 	0.41335 0.76245 0.82936 0.08400
H 	H 	0.91421 0.70984 0.04557 0.04100
H 	H 	0.08293 0.28973 0.95445 0.04100
H 	H 	0.58498 0.20996 0.95444 0.04000
H 	H 	0.41804 0.78959 0.04555 0.04000
C 	C 	0.99511 0.53319 0.47812 -0.00500
C 	C 	0.00489 0.46681 0.52189 -0.00500
C 	C 	0.50489 0.03320 0.52188 -0.00500
C 	C 	0.49511 0.96681 0.47811 -0.00500
N 	N 	0.05114 0.37544 0.27682 -0.02700
O 	O 	0.14606 0.28609 0.28680 -0.07500
O 	O 	0.95960 0.41822 0.32333 -0.07900
N 	N 	0.94744 0.62429 0.72320 -0.02700
O 	O 	0.85062 0.71288 0.71313 -0.07500
O 	O 	0.04046 0.58227 0.67681 -0.07900
N 	N 	0.44950 0.87535 0.72317 -0.02600
O 	O 	0.35506 0.78582 0.71320 -0.07500
O 	O 	0.54075 0.91830 0.67666 -0.08000
N 	N 	0.55198 0.12437 0.27681 -0.02600
O 	O 	0.64836 0.21313 0.28687 -0.07500
O 	O 	0.45921 0.08219 0.32320 -0.08000
