data_crystal

_cell_length_a 11.42065
_cell_length_b 18.86808
_cell_length_c 10.03074
_cell_angle_alpha 90.00011
_cell_angle_beta  109.12148
_cell_angle_gamma 90.00005

_symmetry_space_group_name_	'P 1'
_symmetry_space_group_name_H-M	'P 1'

loop_
_symmetry_equiv_pos_as_xyz
  x,y,z

loop_
_atom_site_label
_atom_site_type_symbol
_atom_site_fract_x
_atom_site_fract_y
_atom_site_fract_z
_atom_site_charge
C 	C 	0.07674 0.64502 0.14218 0.43900
C 	C 	0.92326 0.35498 0.85782 0.44000
C 	C 	0.92326 0.14502 0.85782 0.44100
C 	C 	0.07674 0.85498 0.14219 0.44100
C 	C 	0.43644 0.47278 0.58889 0.04400
C 	C 	0.56356 0.52722 0.41112 0.04400
C 	C 	0.56356 0.97278 0.41113 0.04400
C 	C 	0.43643 0.02722 0.58889 0.04400
C 	C 	0.38768 0.92970 0.94573 -0.20300
C 	C 	0.61230 0.07031 0.05431 -0.20300
C 	C 	0.61231 0.42969 0.05429 -0.20400
C 	C 	0.38768 0.57030 0.94573 -0.20300
C 	C 	0.49634 0.96205 0.97973 0.03800
C 	C 	0.50364 0.03796 0.02028 0.03800
C 	C 	0.50365 0.46204 0.02027 0.04000
C 	C 	0.49634 0.53795 0.97973 0.04000
C 	C 	0.01711 0.92437 0.11802 -0.19100
C 	C 	0.98289 0.07563 0.88198 -0.19100
C 	C 	0.98289 0.42437 0.88198 -0.19000
C 	C 	0.01711 0.57563 0.11802 -0.19000
C 	C 	0.02188 0.96351 0.00846 0.04200
C 	C 	0.97812 0.03649 0.99154 0.04200
C 	C 	0.97812 0.46351 0.99154 0.03800
C 	C 	0.02188 0.53649 0.00846 0.03800
C 	C 	0.43661 0.63752 0.37631 0.32700
C 	C 	0.56339 0.36249 0.62370 0.32700
C 	C 	0.56339 0.13752 0.62370 0.32700
C 	C 	0.43661 0.86248 0.37630 0.32700
C 	C 	0.37540 0.64501 0.96535 0.43500
C 	C 	0.62460 0.35499 0.03465 0.43500
C 	C 	0.62460 0.14501 0.03466 0.43300
C 	C 	0.37540 0.85500 0.96535 0.43300
C 	C 	0.54262 0.43745 0.57747 -0.10000
C 	C 	0.45737 0.56255 0.42254 -0.10000
C 	C 	0.45737 0.93745 0.42254 -0.10000
C 	C 	0.54263 0.06255 0.57748 -0.10000
C 	C 	0.37417 0.45001 0.68291 -0.04000
C 	C 	0.62582 0.54999 0.31710 -0.04000
C 	C 	0.62583 0.95001 0.31711 -0.04000
C 	C 	0.37417 0.05000 0.68291 -0.04000
C 	C 	0.25987 0.47714 0.67762 -0.02700
C 	C 	0.74013 0.52285 0.32240 -0.02700
C 	C 	0.74013 0.97715 0.32240 -0.02400
C 	C 	0.25987 0.02286 0.67762 -0.02400
C 	C 	0.20740 0.53079 0.58383 0.00600
C 	C 	0.79260 0.46921 0.41620 0.00600
C 	C 	0.79260 0.03078 0.41621 0.00400
C 	C 	0.20741 0.96921 0.58384 0.00400
C 	C 	0.26933 0.55525 0.49459 -0.06300
C 	C 	0.73067 0.44476 0.50545 -0.06300
C 	C 	0.73067 0.05524 0.50545 -0.06200
C 	C 	0.26934 0.94475 0.49461 -0.06200
C 	C 	0.38784 0.53095 0.50147 0.05400
C 	C 	0.61216 0.46906 0.49855 0.05400
C 	C 	0.61216 0.03094 0.49856 0.05300
C 	C 	0.38784 0.96905 0.50147 0.05300
Cr	Cr	0.18761 0.75000 0.97986 1.53300
Cr	Cr	0.81239 0.25000 0.02014 1.53300
Cr	Cr	0.24581 0.75000 0.34164 1.53000
Cr	Cr	0.75419 0.25000 0.65836 1.53000
Cr	Cr	0.48576 0.75000 0.21991 1.52500
Cr	Cr	0.51424 0.25000 0.78009 1.52500
H 	H 	0.21379 0.45700 0.74848 0.04000
H 	H 	0.78621 0.54300 0.25154 0.04000
H 	H 	0.78621 0.95700 0.25154 0.04000
H 	H 	0.21379 0.04301 0.74848 0.04000
H 	H 	0.41315 0.41140 0.76324 0.05200
H 	H 	0.58685 0.58860 0.23676 0.05200
H 	H 	0.58685 0.91140 0.23677 0.05300
H 	H 	0.41314 0.08861 0.76324 0.05300
H 	H 	0.22168 0.59098 0.41633 0.06500
H 	H 	0.77832 0.40904 0.58372 0.06500
H 	H 	0.77832 0.09097 0.58372 0.06500
H 	H 	0.22169 0.90900 0.41637 0.06500
H 	H 	0.69656 0.04034 0.06810 0.09400
H 	H 	0.30343 0.95966 0.93198 0.09400
H 	H 	0.30342 0.54033 0.93196 0.09500
H 	H 	0.69657 0.45966 0.06808 0.09500
H 	H 	0.93742 0.05754 0.06737 0.02700
H 	H 	0.06259 0.94246 0.93263 0.02700
H 	H 	0.06259 0.55754 0.93264 0.03100
H 	H 	0.93741 0.44246 0.06736 0.03100
H 	H 	0.01807 0.05334 0.80266 0.08800
H 	H 	0.98193 0.94666 0.19734 0.08800
H 	H 	0.98192 0.55334 0.19734 0.08700
H 	H 	0.01808 0.44666 0.80266 0.08700
O 	O 	0.26771 0.66820 0.90211 -0.48900
O 	O 	0.73229 0.33180 0.09789 -0.48900
O 	O 	0.73229 0.16820 0.09789 -0.48900
O 	O 	0.26771 0.83180 0.90211 -0.48900
O 	O 	0.09948 0.67446 0.03885 -0.52200
O 	O 	0.90052 0.32554 0.96115 -0.52200
O 	O 	0.90052 0.17446 0.96115 -0.52100
O 	O 	0.09948 0.82554 0.03885 -0.52100
O 	O 	0.11672 0.66921 0.26766 -0.49200
O 	O 	0.88328 0.33079 0.73234 -0.49200
O 	O 	0.88328 0.16921 0.73234 -0.49200
O 	O 	0.11672 0.83079 0.26766 -0.49200
O 	O 	0.36671 0.67544 0.42759 -0.48200
O 	O 	0.63329 0.32456 0.57241 -0.48100
O 	O 	0.63329 0.17544 0.57241 -0.48200
O 	O 	0.36671 0.82456 0.42759 -0.48200
O 	O 	0.53487 0.66939 0.37176 -0.43200
O 	O 	0.46513 0.33061 0.62824 -0.43200
O 	O 	0.46513 0.16939 0.62824 -0.43200
O 	O 	0.53487 0.83061 0.37176 -0.43200
O 	O 	0.45308 0.67448 0.07516 -0.52200
O 	O 	0.54692 0.32552 0.92484 -0.52200
O 	O 	0.54692 0.17448 0.92484 -0.52100
O 	O 	0.45308 0.82552 0.07516 -0.52100
O 	O 	0.30639 0.75000 0.18047 -0.76200
O 	O 	0.69361 0.25000 0.81953 -0.76200
C 	C 	0.09314 0.56332 0.58334 0.06800
N 	N 	0.00183 0.58981 0.58361 -0.12100
C 	C 	0.90686 0.43668 0.41670 0.06800
N 	N 	0.99817 0.41019 0.41644 -0.12100
C 	C 	0.90686 0.06332 0.41670 0.06900
N 	N 	0.99818 0.08981 0.41645 -0.12100
C 	C 	0.09315 0.93668 0.58336 0.06900
N 	N 	0.00184 0.91019 0.58363 -0.12100
C 	C 	0.39564 0.07716 0.02692 0.06100
N 	N 	0.31000 0.10826 0.03247 -0.11400
C 	C 	0.60432 0.92286 0.97307 0.06100
N 	N 	0.68996 0.89177 0.96750 -0.11400
C 	C 	0.60435 0.57715 0.97309 0.06200
N 	N 	0.69000 0.60825 0.96753 -0.11300
C 	C 	0.39564 0.42284 0.02689 0.06100
N 	N 	0.30998 0.39174 0.03243 -0.11300
