data_crystal

_cell_length_a 18.94322
_cell_length_b 10.96124
_cell_length_c 18.86663
_cell_angle_alpha 89.99444
_cell_angle_beta  89.97607
_cell_angle_gamma 89.70316

_symmetry_space_group_name_	'P 1'
_symmetry_space_group_name_H-M	'P 1'

loop_
_symmetry_equiv_pos_as_xyz
  x,y,z

loop_
_atom_site_label
_atom_site_type_symbol
_atom_site_fract_x
_atom_site_fract_y
_atom_site_fract_z
_atom_site_charge
O 	O 	0.78751 0.04261 0.67041 -0.50900
O 	O 	0.21249 0.04261 0.32959 -0.51800
O 	O 	0.28751 0.54261 0.67041 -0.47600
O 	O 	0.71249 0.54261 0.32959 -0.48900
O 	O 	0.76567 0.29209 0.67509 -0.50600
O 	O 	0.23433 0.29209 0.32491 -0.51000
O 	O 	0.26567 0.79209 0.67509 -0.50100
O 	O 	0.73433 0.79209 0.32491 -0.50700
C 	C 	0.73152 0.37844 0.64656 0.40600
C 	C 	0.27120 0.37371 0.35563 0.41400
C 	C 	0.23152 0.87845 0.64656 0.39900
C 	C 	0.77120 0.87371 0.35563 0.41500
O 	O 	0.67022 0.40902 0.66856 -0.48100
O 	O 	0.32978 0.40902 0.33144 -0.48100
O 	O 	0.17022 0.90902 0.66856 -0.47100
O 	O 	0.82978 0.90902 0.33144 -0.47600
O 	O 	0.55658 0.25159 0.67498 -0.52700
O 	O 	0.44342 0.25159 0.32502 -0.53000
O 	O 	0.05658 0.75159 0.67498 -0.52500
O 	O 	0.94342 0.75159 0.32502 -0.52700
C 	C 	0.53199 0.15562 0.64662 0.42400
C 	C 	0.46335 0.15416 0.35613 0.43100
C 	C 	0.03199 0.65561 0.64662 0.42500
C 	C 	0.96335 0.65416 0.35613 0.43600
O 	O 	0.54589 0.04967 0.67003 -0.49200
O 	O 	0.45411 0.04967 0.32997 -0.49400
O 	O 	0.04589 0.54967 0.67003 -0.48000
O 	O 	0.95411 0.54967 0.32997 -0.48100
O 	O 	0.68134 0.95786 0.67650 -0.52400
O 	O 	0.31866 0.95786 0.32350 -0.52300
O 	O 	0.18134 0.45786 0.67650 -0.53200
O 	O 	0.81866 0.45786 0.32350 -0.53400
C 	C 	0.74135 0.96824 0.64782 0.46700
C 	C 	0.26006 0.97525 0.35496 0.46100
C 	C 	0.24135 0.46824 0.64782 0.42900
C 	C 	0.76006 0.47525 0.35496 0.43100
O 	O 	0.78738 0.04401 0.83094 -0.50300
O 	O 	0.21262 0.04401 0.16906 -0.49200
O 	O 	0.28738 0.54401 0.83094 -0.46800
O 	O 	0.71262 0.54401 0.16906 -0.46900
O 	O 	0.76554 0.29339 0.82391 -0.52600
O 	O 	0.23446 0.29339 0.17609 -0.50800
O 	O 	0.26554 0.79339 0.82391 -0.52600
O 	O 	0.73446 0.79339 0.17609 -0.50500
C 	C 	0.73019 0.37912 0.85200 0.41800
C 	C 	0.27176 0.37571 0.14635 0.41700
C 	C 	0.23019 0.87910 0.85200 0.43700
C 	C 	0.77177 0.87569 0.14635 0.41700
O 	O 	0.67009 0.41041 0.82909 -0.48300
O 	O 	0.32991 0.41041 0.17091 -0.48200
O 	O 	0.17009 0.91041 0.82909 -0.48000
O 	O 	0.82991 0.91041 0.17091 -0.47600
O 	O 	0.55645 0.25289 0.82379 -0.51700
O 	O 	0.44355 0.25289 0.17621 -0.52500
O 	O 	0.05645 0.75289 0.82379 -0.51500
O 	O 	0.94355 0.75289 0.17621 -0.52000
C 	C 	0.53341 0.15761 0.85392 0.42300
C 	C 	0.46542 0.15616 0.14536 0.42700
C 	C 	0.03337 0.65761 0.85390 0.42500
C 	C 	0.96535 0.65613 0.14531 0.42500
O 	O 	0.54575 0.05107 0.83056 -0.49300
O 	O 	0.45425 0.05107 0.16944 -0.49500
O 	O 	0.04575 0.55107 0.83056 -0.48500
O 	O 	0.95425 0.55107 0.16944 -0.48400
O 	O 	0.68121 0.95915 0.82532 -0.52600
O 	O 	0.31879 0.95915 0.17468 -0.51600
O 	O 	0.18121 0.45915 0.82532 -0.53400
O 	O 	0.81879 0.45915 0.17468 -0.53000
C 	C 	0.74094 0.97132 0.85436 0.48300
C 	C 	0.25887 0.97449 0.14421 0.45600
C 	C 	0.24093 0.47134 0.85437 0.44500
C 	C 	0.75886 0.47446 0.14422 0.43800
Cr	Cr	0.77195 0.16948 0.75010 1.54000
Cr	Cr	0.22805 0.16948 0.24990 1.54000
Cr	Cr	0.27195 0.66948 0.75010 1.54200
Cr	Cr	0.72805 0.66948 0.24990 1.54100
Cr	Cr	0.61493 0.32334 0.74917 1.53900
Cr	Cr	0.38507 0.32334 0.25083 1.53900
Cr	Cr	0.11493 0.82334 0.74917 1.54000
Cr	Cr	0.88507 0.82334 0.25083 1.54000
Cr	Cr	0.61659 0.01062 0.75061 1.53000
Cr	Cr	0.38341 0.01062 0.24939 1.52900
Cr	Cr	0.11659 0.51062 0.75061 1.53900
Cr	Cr	0.88341 0.51062 0.24939 1.53800
O 	O 	0.66782 0.16781 0.74996 -0.75400
O 	O 	0.33218 0.16781 0.25004 -0.75500
O 	O 	0.16782 0.66781 0.74996 -0.74800
O 	O 	0.83218 0.66781 0.25004 -0.74900
C 	C 	0.47762 0.15894 0.43156 -0.13100
C 	C 	0.49611 0.16575 0.57889 -0.12500
C 	C 	0.97762 0.65895 0.43156 -0.13600
C 	C 	0.99611 0.66575 0.57889 -0.12600
C 	C 	0.48933 0.26967 0.46583 0.05000
C 	C 	0.49953 0.27287 0.53843 0.04600
C 	C 	0.98933 0.76967 0.46583 0.05600
C 	C 	0.99953 0.77287 0.53843 0.05100
C 	C 	0.47156 0.05930 0.54627 -0.02300
C 	C 	0.46285 0.05559 0.47328 -0.01100
C 	C 	0.97156 0.55930 0.54627 0.00600
C 	C 	0.96284 0.55559 0.47328 0.02000
C 	C 	0.54530 0.36177 0.45219 -0.08800
C 	C 	0.55731 0.36436 0.53161 -0.08600
C 	C 	0.04530 0.86176 0.45219 -0.09000
C 	C 	0.05731 0.86435 0.53161 -0.08800
H 	H 	0.46644 0.97544 0.57577 0.08300
H 	H 	0.44693 0.97018 0.44956 0.06700
H 	H 	0.96644 0.47544 0.57578 0.05800
H 	H 	0.94692 0.47018 0.44957 0.04200
H 	H 	0.02322 0.94865 0.43114 0.05800
H 	H 	0.10944 0.82591 0.54702 0.06800
H 	H 	0.52321 0.44866 0.43114 0.05000
H 	H 	0.60944 0.32592 0.54702 0.06300
H 	H 	0.59083 0.32392 0.42195 0.05800
H 	H 	0.54326 0.45330 0.55631 0.05000
H 	H 	0.09083 0.82391 0.42195 0.06400
H 	H 	0.04327 0.95330 0.55631 0.05800
C 	C 	0.68850 0.89350 0.53681 0.04300
C 	C 	0.30388 0.86932 0.46218 0.03900
C 	C 	0.18850 0.39351 0.53681 0.03600
C 	C 	0.80388 0.36932 0.46218 0.03700
H 	H 	0.63719 0.88989 0.56218 0.04700
H 	H 	0.34163 0.82017 0.42960 0.03900
H 	H 	0.13719 0.38992 0.56217 0.04200
H 	H 	0.84163 0.32017 0.42960 0.03500
C 	C 	0.69211 0.88544 0.46309 -0.03900
C 	C 	0.30626 0.85806 0.53593 -0.04700
C 	C 	0.19211 0.38545 0.46309 -0.04100
C 	C 	0.80626 0.35806 0.53593 -0.04500
C 	C 	0.75864 0.89951 0.43028 -0.07300
C 	C 	0.25496 0.92236 0.57714 -0.04300
C 	C 	0.25864 0.39950 0.43028 -0.07800
C 	C 	0.75496 0.42236 0.57714 -0.07700
C 	C 	0.81935 0.91807 0.47206 -0.01000
C 	C 	0.21202 0.01027 0.54471 -0.04900
C 	C 	0.31935 0.41806 0.47206 -0.01000
C 	C 	0.71201 0.51026 0.54471 -0.01600
H 	H 	0.87145 0.92543 0.44892 0.05400
H 	H 	0.17468 0.06437 0.57506 0.04400
H 	H 	0.37145 0.42540 0.44892 0.04900
H 	H 	0.67468 0.56436 0.57505 0.04600
C 	C 	0.81481 0.92607 0.54454 0.03700
C 	C 	0.21105 0.02109 0.47208 -0.00600
C 	C 	0.31481 0.42605 0.54454 0.02700
C 	C 	0.71105 0.52109 0.47208 0.01900
H 	H 	0.86219 0.94424 0.57486 0.04400
H 	H 	0.17567 0.08811 0.44899 0.04400
H 	H 	0.36219 0.44421 0.57486 0.03800
H 	H 	0.67567 0.58810 0.44899 0.04400
C 	C 	0.74924 0.91922 0.57700 -0.13800
C 	C 	0.25516 0.94776 0.43012 -0.11100
C 	C 	0.24924 0.41922 0.57699 -0.13100
C 	C 	0.75516 0.44776 0.43012 -0.13500
C 	C 	0.46386 0.07984 0.95348 -0.00400
C 	C 	0.45174 0.07585 0.02558 0.01700
C 	C 	0.96458 0.57854 0.95361 0.00800
C 	C 	0.95264 0.57443 0.02571 0.01300
H 	H 	0.44053 0.01117 0.91956 0.03500
H 	H 	0.41739 0.00587 0.04610 0.03000
H 	H 	0.94197 0.50891 0.91985 0.04100
H 	H 	0.91910 0.50333 0.04634 0.04100
C 	C 	0.48351 0.16108 0.07095 -0.12600
C 	C 	0.50814 0.16914 0.92598 -0.10100
C 	C 	0.98348 0.66097 0.07091 -0.11400
C 	C 	0.00790 0.66909 0.92590 -0.10600
C 	C 	0.52636 0.25237 0.04366 0.02000
C 	C 	0.53915 0.25613 0.97110 0.00300
C 	C 	0.02523 0.75361 0.04340 0.01500
C 	C 	0.03797 0.75736 0.97084 0.01000
H 	H 	0.55124 0.31703 0.07881 0.04600
H 	H 	0.57550 0.32349 0.95068 0.05500
H 	H 	0.04931 0.81940 0.07841 0.05600
H 	H 	0.07357 0.82581 0.95027 0.05900
C 	C 	0.81554 0.90500 0.95498 0.12500
C 	C 	0.19667 0.00237 0.02872 0.03800
C 	C 	0.31547 0.40453 0.95495 0.11300
C 	C 	0.69656 0.50209 0.02878 0.12600
C 	C 	0.82169 0.89264 0.02777 -0.02700
C 	C 	0.20016 0.99625 0.95622 0.06300
C 	C 	0.32163 0.39211 0.02774 -0.02400
C 	C 	0.70003 0.49606 0.95627 -0.04200
H 	H 	0.87345 0.87401 0.04989 0.07200
H 	H 	0.16046 0.04556 0.92609 0.02500
H 	H 	0.37334 0.37302 0.04983 0.06900
H 	H 	0.66023 0.54521 0.92619 0.07100
C 	C 	0.76189 0.90039 0.07179 -0.08500
C 	C 	0.24785 0.91793 0.92307 -0.13000
C 	C 	0.26188 0.40038 0.07180 -0.09300
C 	C 	0.74784 0.41798 0.92307 -0.09100
C 	C 	0.69522 0.91928 0.04302 0.00800
C 	C 	0.29846 0.85451 0.96310 0.01300
C 	C 	0.19525 0.41987 0.04308 0.00900
C 	C 	0.79857 0.35479 0.96306 -0.02100
H 	H 	0.64899 0.92553 0.07669 0.05400
H 	H 	0.33518 0.79161 0.93828 0.04400
H 	H 	0.14906 0.42648 0.07678 0.04600
H 	H 	0.83538 0.29209 0.93820 0.04500
C 	C 	0.68832 0.93074 0.97020 0.02700
C 	C 	0.29956 0.86759 0.03635 0.00600
C 	C 	0.18833 0.43138 0.97027 0.01600
C 	C 	0.79969 0.36784 0.03631 0.03000
H 	H 	0.63637 0.95042 0.94891 0.04800
H 	H 	0.33988 0.82032 0.06660 0.04300
H 	H 	0.13642 0.45149 0.94901 0.04100
H 	H 	0.84009 0.32071 0.06653 0.02900
C 	C 	0.74838 0.92614 0.92605 -0.15200
C 	C 	0.24912 0.94161 0.07003 -0.09800
C 	C 	0.24834 0.42623 0.92607 -0.14300
C 	C 	0.74912 0.44155 0.07004 -0.15200
N 	N 	0.87768 0.89899 0.91153 -0.02300
O 	O 	0.93500 0.95427 0.93129 -0.10100
O 	O 	0.87742 0.83788 0.85239 -0.10900
N 	N 	0.13811 0.06877 0.05824 -0.01000
O 	O 	0.07432 0.03274 0.04437 -0.13500
O 	O 	0.14686 0.18143 0.07716 -0.12000
N 	N 	0.37755 0.39789 0.91143 -0.02200
O 	O 	0.43522 0.45189 0.93137 -0.11300
O 	O 	0.37697 0.33712 0.85218 -0.11800
N 	N 	0.63791 0.56813 0.05837 -0.02200
O 	O 	0.57418 0.53147 0.04479 -0.11600
O 	O 	0.64641 0.68094 0.07713 -0.11300
C 	C 	0.62536 0.86916 0.42304 0.27700
O 	O 	0.61719 0.91798 0.36532 -0.23000
O 	O 	0.57071 0.80060 0.45267 -0.30900
H 	H 	0.52806 0.79512 0.42041 0.15600
C 	C 	0.36395 0.78156 0.56632 0.28500
O 	O 	0.38972 0.80662 0.62389 -0.25400
O 	O 	0.39217 0.68510 0.52670 -0.31000
H 	H 	0.43267 0.64235 0.55177 0.15400
C 	C 	0.12536 0.36918 0.42304 0.27500
O 	O 	0.11720 0.41801 0.36531 -0.24100
O 	O 	0.07070 0.30063 0.45266 -0.31400
H 	H 	0.02806 0.29516 0.42040 0.15000
C 	C 	0.86396 0.28157 0.56632 0.28300
O 	O 	0.88972 0.30662 0.62389 -0.25900
O 	O 	0.89218 0.18511 0.52670 -0.31600
H 	H 	0.93267 0.14236 0.55177 0.14700
